Initialize SIGNATURE TABLE
ST_SET: 1
ST_WAY: 256
ST_TAG_BIT: 16
ST_TAG_MASK: ffff

Initialize PATTERN TABLE
PT_SET: 512
PT_WAY: 4
SIG_DELTA_BIT: 7
C_SIG_BIT: 4
C_DELTA_BIT: 4

Initialize PREFETCH FILTER
FILTER_SET: 1024

*** ChampSim Multicore Out-of-Order Simulator ***

Warmup Instructions: 50000000
Simulation Instructions: 50000000
Number of CPUs: 1
LLC sets: 2048
LLC ways: 16
Off-chip DRAM Size: 4096 MB Channels: 1 Width: 64-bit Data Rate: 6400 MT/s
CPU 0 runs ../../biswa/SPEC2017Traces/649.fotonik3d_s-10881B.champsimtrace.xz
.xz
CPU 0 Bimodal branch predictor
BTB has LRU replacement policy
ITLB has LRU replacement policy
DTLB has LRU replacement policy
STLB has LRU replacement policy
L1I has LRU replacement policy
L1D has LRU replacement policy
ST_WAYS: 256
PT_SETS: 512
Initialize DRRIP state for L2C
Initialize SRRIP state
epoch: 1000
next table: 3063
cur table: 4200
epoch: 1000
next table: 2833
cur table: 10037
epoch: 1000
next table: 2701
cur table: 3063
epoch: 1000
next table: 2446
cur table: 2833
epoch: 1000
next table: 2356
cur table: 2446
epoch: 1000
next table: 2495
cur table: 2701
epoch: 1000
next table: 2236
cur table: 2356
epoch: 1000
next table: 2208
cur table: 2236
epoch: 1000
next table: 2510
cur table: 2495
epoch: 1000
next table: 2198
cur table: 2208
epoch: 1000
next table: 2172
cur table: 2198
epoch: 1000
next table: 2494
cur table: 2510
epoch: 1000
next table: 2164
cur table: 2172
epoch: 1000
next table: 2157
cur table: 2164
epoch: 1000
next table: 2447
cur table: 2494
epoch: 1000
next table: 2151
cur table: 2157
epoch: 1000
next table: 2151
cur table: 2151
epoch: 1000
next table: 2380
cur table: 2447
epoch: 1000
next table: 2150
cur table: 2151
epoch: 1000
next table: 2148
cur table: 2150
epoch: 1000
next table: 2306
cur table: 2380
epoch: 1000
next table: 2144
cur table: 2148
epoch: 1000
next table: 2149
cur table: 2144
epoch: 1000
next table: 2173
cur table: 2306
epoch: 1000
next table: 2152
cur table: 2149
epoch: 1000
next table: 2158
cur table: 2152
epoch: 1000
next table: 2174
cur table: 2173
epoch: 1000
next table: 2159
cur table: 2158
epoch: 1000
next table: 2103
cur table: 2174
epoch: 1000
next table: 2168
cur table: 2159
epoch: 1000
next table: 2154
cur table: 2168
epoch: 1000
next table: 2015
cur table: 2103
epoch: 1000
next table: 2156
cur table: 2154
epoch: 1000
next table: 1996
cur table: 2015
epoch: 1000
next table: 2159
cur table: 2156
epoch: 1000
next table: 2161
cur table: 2159
epoch: 1000
next table: 1961
cur table: 1996
epoch: 1000
next table: 2152
cur table: 2161
epoch: 1000
next table: 1907
cur table: 1961
epoch: 1000
next table: 2159
cur table: 2152
epoch: 1000
next table: 2165
cur table: 2159
epoch: 1000
next table: 1938
cur table: 1907
epoch: 1000
next table: 2149
cur table: 2165
epoch: 1000
next table: 1906
cur table: 1938
epoch: 1000
next table: 2155
cur table: 2149
epoch: 1000
next table: 1880
cur table: 1906
epoch: 1000
next table: 2158
cur table: 2155
epoch: 1000
next table: 2156
cur table: 2158
epoch: 1000
next table: 1893
cur table: 1880
epoch: 1000
next table: 2154
cur table: 2156
epoch: 1000
next table: 1868
cur table: 1893
epoch: 1000
next table: 2149
cur table: 2154
epoch: 1000
next table: 1857
cur table: 1868
epoch: 1000
next table: 2156
cur table: 2149
epoch: 1000
next table: 1830
cur table: 1857
epoch: 1000
next table: 2149
cur table: 2156
epoch: 1000
next table: 2152
cur table: 2149
epoch: 1000
next table: 1821
cur table: 1830
epoch: 1000
next table: 2162
cur table: 2152
epoch: 1000
next table: 1771
cur table: 1821
epoch: 1000
next table: 2152
cur table: 2162
epoch: 1000
next table: 1762
cur table: 1771
epoch: 1000
next table: 2148
cur table: 2152
epoch: 1000
next table: 1731
cur table: 1762
epoch: 1000
next table: 2157
cur table: 2148
epoch: 1000
next table: 1718
cur table: 1731
epoch: 1000
next table: 2157
cur table: 2157
epoch: 1000
next table: 1708
cur table: 1718
epoch: 1000
next table: 2151
cur table: 2157
epoch: 1000
next table: 1738
cur table: 1708
epoch: 1000
next table: 2162
cur table: 2151
epoch: 1000
next table: 1701
cur table: 1738
epoch: 1000
next table: 2160
cur table: 2162
epoch: 1000
next table: 1705
cur table: 1701
epoch: 1000
next table: 2154
cur table: 2160
epoch: 1000
next table: 1685
cur table: 1705
epoch: 1000
next table: 2149
cur table: 2154
epoch: 1000
next table: 1691
cur table: 1685
epoch: 1000
next table: 2149
cur table: 2149
epoch: 1000
next table: 2156
cur table: 2149
epoch: 1000
next table: 1693
cur table: 1691
epoch: 1000
next table: 2154
cur table: 2156
epoch: 1000
next table: 1716
cur table: 1693
epoch: 1000
next table: 2145
cur table: 2154
epoch: 1000
next table: 1685
cur table: 1716
epoch: 1000
next table: 2160
cur table: 2145
epoch: 1000
next table: 1690
cur table: 1685
epoch: 1000
next table: 2148
cur table: 2160
epoch: 1000
next table: 1669
cur table: 1690
epoch: 1000
next table: 2152
cur table: 2148
epoch: 1000
next table: 1665
cur table: 1669
epoch: 1000
next table: 2163
cur table: 2152
epoch: 1000
next table: 1692
cur table: 1665
epoch: 1000
next table: 2150
cur table: 2163
epoch: 1000
next table: 1671
cur table: 1692
epoch: 1000
next table: 2155
cur table: 2150
epoch: 1000
next table: 1657
cur table: 1671
epoch: 1000
next table: 2158
cur table: 2155
epoch: 1000
next table: 1663
cur table: 1657
epoch: 1000
next table: 2157
cur table: 2158
epoch: 1000
next table: 1654
cur table: 1663
epoch: 1000
next table: 2152
cur table: 2157
epoch: 1000
next table: 1659
cur table: 1654
epoch: 1000
next table: 2148
cur table: 2152
epoch: 1000
next table: 1668
cur table: 1659
epoch: 1000
next table: 2155
cur table: 2148
epoch: 1000
next table: 1667
cur table: 1668
epoch: 1000
next table: 1671
cur table: 1667
epoch: 1000
next table: 2153
cur table: 2155
epoch: 1000
next table: 1619
cur table: 1671
epoch: 1000
next table: 2152
cur table: 2153
epoch: 1000
next table: 1655
cur table: 1619
epoch: 1000
next table: 2155
cur table: 2152
epoch: 1000
next table: 1616
cur table: 1655
epoch: 1000
next table: 2156
cur table: 2155
epoch: 1000
next table: 1637
cur table: 1616
epoch: 1000
next table: 2158
cur table: 2156
epoch: 1000
next table: 1619
cur table: 1637
epoch: 1000
next table: 2151
cur table: 2158
epoch: 1000
next table: 1611
cur table: 1619
epoch: 1000
next table: 2156
cur table: 2151
epoch: 1000
next table: 1610
cur table: 1611
epoch: 1000
next table: 2150
cur table: 2156
epoch: 1000
next table: 1622
cur table: 1610
epoch: 1000
next table: 2155
cur table: 2150
epoch: 1000
next table: 1619
cur table: 1622
epoch: 1000
next table: 2149
cur table: 2155
epoch: 1000
next table: 1629
cur table: 1619
epoch: 1000
next table: 2159
cur table: 2149
epoch: 1000
next table: 1647
cur table: 1629
epoch: 1000
next table: 2157
cur table: 2159
epoch: 1000
next table: 1664
cur table: 1647
epoch: 1000
next table: 2156
cur table: 2157
epoch: 1000
next table: 1634
cur table: 1664
epoch: 1000
next table: 2147
cur table: 2156
epoch: 1000
next table: 1652
cur table: 1634
epoch: 1000
next table: 2156
cur table: 2147
epoch: 1000
next table: 1637
cur table: 1652
epoch: 1000
next table: 2154
cur table: 2156
epoch: 1000
next table: 1633
cur table: 1637
epoch: 1000
next table: 2150
cur table: 2154
epoch: 1000
next table: 1614
cur table: 1633
epoch: 1000
next table: 2154
cur table: 2150
epoch: 1000
next table: 1638
cur table: 1614
epoch: 1000
next table: 1630
cur table: 1638
epoch: 1000
next table: 2162
cur table: 2154
epoch: 1000
next table: 1646
cur table: 1630
epoch: 1000
next table: 2146
cur table: 2162
epoch: 1000
next table: 1636
cur table: 1646
epoch: 1000
next table: 2159
cur table: 2146
epoch: 1000
next table: 1632
cur table: 1636
epoch: 1000
next table: 2158
cur table: 2159
epoch: 1000
next table: 1644
cur table: 1632
epoch: 1000
next table: 2156
cur table: 2158
epoch: 1000
next table: 1641
cur table: 1644
epoch: 1000
next table: 2154
cur table: 2156
epoch: 1000
next table: 1642
cur table: 1641
epoch: 1000
next table: 2153
cur table: 2154
epoch: 1000
next table: 1646
cur table: 1642
epoch: 1000
next table: 2156
cur table: 2153
epoch: 1000
next table: 1626
cur table: 1646
epoch: 1000
next table: 2159
cur table: 2156
epoch: 1000
next table: 1614
cur table: 1626
epoch: 1000
next table: 2164
cur table: 2159
epoch: 1000
next table: 1636
cur table: 1614
epoch: 1000
next table: 2154
cur table: 2164
epoch: 1000
next table: 1626
cur table: 1636
epoch: 1000
next table: 2151
cur table: 2154
epoch: 1000
next table: 1603
cur table: 1626
epoch: 1000
next table: 2164
cur table: 2151
epoch: 1000
next table: 1643
cur table: 1603
epoch: 1000
next table: 2158
cur table: 2164
epoch: 1000
next table: 1623
cur table: 1643
epoch: 1000
next table: 2157
cur table: 2158
epoch: 1000
next table: 1622
cur table: 1623
epoch: 1000
next table: 2156
cur table: 2157
epoch: 1000
next table: 1637
cur table: 1622
epoch: 1000
next table: 2158
cur table: 2156
epoch: 1000
next table: 1641
cur table: 1637
epoch: 1000
next table: 2147
cur table: 2158
epoch: 1000
next table: 1635
cur table: 1641
epoch: 1000
next table: 1634
cur table: 1635
epoch: 1000
next table: 2153
cur table: 2147
epoch: 1000
next table: 1629
cur table: 1634
epoch: 1000
next table: 2153
cur table: 2153
epoch: 1000
next table: 1598
cur table: 1629
epoch: 1000
next table: 2162
cur table: 2153
epoch: 1000
next table: 1614
cur table: 1598
epoch: 1000
next table: 2165
cur table: 2162
epoch: 1000
next table: 1645
cur table: 1614
epoch: 1000
next table: 2152
cur table: 2165
epoch: 1000
next table: 1604
cur table: 1645
epoch: 1000
next table: 2157
cur table: 2152
epoch: 1000
next table: 1622
cur table: 1604
epoch: 1000
next table: 2140
cur table: 2157
epoch: 1000
next table: 1588
cur table: 1622
epoch: 1000
next table: 2170
cur table: 2140
epoch: 1000
next table: 1615
cur table: 1588
epoch: 1000
next table: 2146
cur table: 2170
epoch: 1000
next table: 1595
cur table: 1615
epoch: 1000
next table: 2164
cur table: 2146
epoch: 1000
next table: 1658
cur table: 1595
epoch: 1000
next table: 2151
cur table: 2164
epoch: 1000
next table: 1626
cur table: 1658
epoch: 1000
next table: 2165
cur table: 2151
epoch: 1000
next table: 1619
cur table: 1626
epoch: 1000
next table: 2148
cur table: 2165
epoch: 1000
next table: 1655
cur table: 1619
epoch: 1000
next table: 1655
cur table: 1655
epoch: 1000
next table: 2151
cur table: 2148
epoch: 1000
next table: 1624
cur table: 1655
epoch: 1000
next table: 2152
cur table: 2151
epoch: 1000
next table: 1618
cur table: 1624
epoch: 1000
next table: 2157
cur table: 2152
epoch: 1000
next table: 1609
cur table: 1618
epoch: 1000
next table: 2161
cur table: 2157
epoch: 1000
next table: 1613
cur table: 1609
epoch: 1000
next table: 2166
cur table: 2161
epoch: 1000
next table: 1631
cur table: 1613
epoch: 1000
next table: 2159
cur table: 2166
epoch: 1000
next table: 1594
cur table: 1631
epoch: 1000
next table: 2149
cur table: 2159
epoch: 1000
next table: 1632
cur table: 1594
epoch: 1000
next table: 2154
cur table: 2149
epoch: 1000
next table: 1673
cur table: 1632
epoch: 1000
next table: 2150
cur table: 2154
epoch: 1000
next table: 1628
cur table: 1673
epoch: 1000
next table: 2149
cur table: 2150
epoch: 1000
next table: 1612
cur table: 1628
epoch: 1000
next table: 2151
cur table: 2149
epoch: 1000
next table: 1605
cur table: 1612
epoch: 1000
next table: 2149
cur table: 2151
epoch: 1000
next table: 1647
cur table: 1605
epoch: 1000
next table: 1605
cur table: 1647
epoch: 1000
next table: 2158
cur table: 2149
epoch: 1000
next table: 1634
cur table: 1605
epoch: 1000
next table: 2163
cur table: 2158
epoch: 1000
next table: 1627
cur table: 1634
epoch: 1000
next table: 2154
cur table: 2163
epoch: 1000
next table: 1623
cur table: 1627
epoch: 1000
next table: 2161
cur table: 2154
epoch: 1000
next table: 1583
cur table: 1623
epoch: 1000
next table: 2158
cur table: 2161
epoch: 1000
next table: 1608
cur table: 1583
epoch: 1000
next table: 2167
cur table: 2158
epoch: 1000
next table: 1611
cur table: 1608
epoch: 1000
next table: 2151
cur table: 2167
epoch: 1000
next table: 1642
cur table: 1611
epoch: 1000
next table: 2157
cur table: 2151
epoch: 1000
next table: 1600
cur table: 1642
epoch: 1000
next table: 2164
cur table: 2157
epoch: 1000
next table: 1627
cur table: 1600
epoch: 1000
next table: 2152
cur table: 2164
epoch: 1000
next table: 1625
cur table: 1627
epoch: 1000
next table: 2153
cur table: 2152
epoch: 1000
next table: 1632
cur table: 1625
epoch: 1000
next table: 2151
cur table: 2153
epoch: 1000
next table: 1623
cur table: 1632
epoch: 1000
next table: 2153
cur table: 2151
epoch: 1000
next table: 1650
cur table: 1623
epoch: 1000
next table: 1646
cur table: 1650
epoch: 1000
next table: 2152
cur table: 2153
epoch: 1000
next table: 1655
cur table: 1646
epoch: 1000
next table: 2160
cur table: 2152
epoch: 1000
next table: 1594
cur table: 1655
epoch: 1000
next table: 2153
cur table: 2160
epoch: 1000
next table: 1601
cur table: 1594
epoch: 1000
next table: 2151
cur table: 2153
epoch: 1000
next table: 1633
cur table: 1601
epoch: 1000
next table: 2152
cur table: 2151
epoch: 1000
next table: 1629
cur table: 1633
epoch: 1000
next table: 2154
cur table: 2152
epoch: 1000
next table: 1620
cur table: 1629
epoch: 1000
next table: 2158
cur table: 2154
epoch: 1000
next table: 1627
cur table: 1620
epoch: 1000
next table: 2153
cur table: 2158
epoch: 1000
next table: 1635
cur table: 1627
epoch: 1000
next table: 2157
cur table: 2153
epoch: 1000
next table: 1640
cur table: 1635
epoch: 1000
next table: 2156
cur table: 2157
epoch: 1000
next table: 1648
cur table: 1640
epoch: 1000
next table: 2146
cur table: 2156
epoch: 1000
next table: 1631
cur table: 1648
epoch: 1000
next table: 2154
cur table: 2146
epoch: 1000
next table: 1617
cur table: 1631
epoch: 1000
next table: 2156
cur table: 2154
epoch: 1000
next table: 1650
cur table: 1617
epoch: 1000
next table: 2149
cur table: 2156
epoch: 1000
next table: 1655
cur table: 1650
epoch: 1000
next table: 2158
cur table: 2149
epoch: 1000
next table: 1649
cur table: 1655
epoch: 1000
next table: 2153
cur table: 2158
epoch: 1000
next table: 1640
cur table: 1649
epoch: 1000
next table: 1614
cur table: 1640
epoch: 1000
next table: 2167
cur table: 2153
epoch: 1000
next table: 1645
cur table: 1614
epoch: 1000
next table: 2152
cur table: 2167
epoch: 1000
next table: 1616
cur table: 1645
epoch: 1000
next table: 2154
cur table: 2152
epoch: 1000
next table: 1687
cur table: 1616
epoch: 1000
next table: 2154
cur table: 2154
epoch: 1000
next table: 1639
cur table: 1687
epoch: 1000
next table: 2145
cur table: 2154
epoch: 1000
next table: 1619
cur table: 1639
epoch: 1000
next table: 2149
cur table: 2145
epoch: 1000
next table: 1632
cur table: 1619
epoch: 1000
next table: 2152
cur table: 2149
epoch: 1000
next table: 1649
cur table: 1632
epoch: 1000
next table: 2157
cur table: 2152
epoch: 1000
next table: 1631
cur table: 1649
epoch: 1000
next table: 2161
cur table: 2157
epoch: 1000
next table: 1635
cur table: 1631
epoch: 1000
next table: 2153
cur table: 2161
epoch: 1000
next table: 1654
cur table: 1635
epoch: 1000
next table: 2159
cur table: 2153
epoch: 1000
next table: 1639
cur table: 1654
epoch: 1000
next table: 2153
cur table: 2159
epoch: 1000
next table: 1584
cur table: 1639
epoch: 1000
next table: 2157
cur table: 2153
epoch: 1000
next table: 1643
cur table: 1584
epoch: 1000
next table: 2156
cur table: 2157
epoch: 1000
next table: 1634
cur table: 1643
epoch: 1000
next table: 2142
cur table: 2156
epoch: 1000
next table: 1646
cur table: 1634
epoch: 1000
next table: 2154
cur table: 2142
epoch: 1000
next table: 1632
cur table: 1646
epoch: 1000
next table: 2150
cur table: 2154
epoch: 1000
next table: 1622
cur table: 1632
epoch: 1000
next table: 1635
cur table: 1622
epoch: 1000
next table: 2150
cur table: 2150
epoch: 1000
next table: 1650
cur table: 1635
epoch: 1000
next table: 2148
cur table: 2150
epoch: 1000
next table: 1616
cur table: 1650
epoch: 1000
next table: 2161
cur table: 2148
epoch: 1000
next table: 1633
cur table: 1616
epoch: 1000
next table: 2148
cur table: 2161
epoch: 1000
next table: 1614
cur table: 1633
epoch: 1000
next table: 2151
cur table: 2148
epoch: 1000
next table: 1606
cur table: 1614
epoch: 1000
next table: 2156
cur table: 2151
epoch: 1000
next table: 1623
cur table: 1606
epoch: 1000
next table: 2160
cur table: 2156
epoch: 1000
next table: 1626
cur table: 1623
epoch: 1000
next table: 2157
cur table: 2160
epoch: 1000
next table: 1655
cur table: 1626
epoch: 1000
next table: 2163
cur table: 2157
epoch: 1000
next table: 1637
cur table: 1655
epoch: 1000
next table: 2152
cur table: 2163
epoch: 1000
next table: 1643
cur table: 1637
epoch: 1000
next table: 2152
cur table: 2152
epoch: 1000
next table: 1629
cur table: 1643
epoch: 1000
next table: 2159
cur table: 2152
epoch: 1000
next table: 1636
cur table: 1629
epoch: 1000
next table: 2150
cur table: 2159
epoch: 1000
next table: 1632
cur table: 1636
epoch: 1000
next table: 2153
cur table: 2150
epoch: 1000
next table: 1642
cur table: 1632
epoch: 1000
next table: 2163
cur table: 2153
epoch: 1000
next table: 1648
cur table: 1642
epoch: 1000
next table: 2157
cur table: 2163
epoch: 1000
next table: 1670
cur table: 1648
epoch: 1000
next table: 2159
cur table: 2157
epoch: 1000
next table: 1613
cur table: 1670
epoch: 1000
next table: 2174
cur table: 2159
epoch: 1000
next table: 1611
cur table: 1613
epoch: 1000
next table: 1626
cur table: 1611
epoch: 1000
next table: 2152
cur table: 2174
epoch: 1000
next table: 1612
cur table: 1626
epoch: 1000
next table: 2157
cur table: 2152
Heartbeat CPU 0 instructions: 10000003 cycles: 5057585 heartbeat IPC: 1.97723 cumulative IPC: 1.97723 (Simulation time: 0 hr 4 min 11 sec) 
epoch: 1000
next table: 1642
cur table: 1612
epoch: 1000
next table: 2156
cur table: 2157
epoch: 1000
next table: 1601
cur table: 1642
epoch: 1000
next table: 2154
cur table: 2156
epoch: 1000
next table: 1606
cur table: 1601
epoch: 1000
next table: 2157
cur table: 2154
epoch: 1000
next table: 1625
cur table: 1606
epoch: 1000
next table: 2157
cur table: 2157
epoch: 1000
next table: 1649
cur table: 1625
epoch: 1000
next table: 2144
cur table: 2157
epoch: 1000
next table: 1637
cur table: 1649
epoch: 1000
next table: 2166
cur table: 2144
epoch: 1000
next table: 1633
cur table: 1637
epoch: 1000
next table: 2146
cur table: 2166
epoch: 1000
next table: 1617
cur table: 1633
epoch: 1000
next table: 2151
cur table: 2146
epoch: 1000
next table: 1602
cur table: 1617
epoch: 1000
next table: 2160
cur table: 2151
epoch: 1000
next table: 1631
cur table: 1602
epoch: 1000
next table: 2164
cur table: 2160
epoch: 1000
next table: 1655
cur table: 1631
epoch: 1000
next table: 2151
cur table: 2164
epoch: 1000
next table: 1633
cur table: 1655
epoch: 1000
next table: 2159
cur table: 2151
epoch: 1000
next table: 1641
cur table: 1633
epoch: 1000
next table: 2150
cur table: 2159
epoch: 1000
next table: 1622
cur table: 1641
epoch: 1000
next table: 2157
cur table: 2150
epoch: 1000
next table: 1624
cur table: 1622
epoch: 1000
next table: 2150
cur table: 2157
epoch: 1000
next table: 1633
cur table: 1624
epoch: 1000
next table: 1607
cur table: 1633
epoch: 1000
next table: 2146
cur table: 2150
epoch: 1000
next table: 1616
cur table: 1607
epoch: 1000
next table: 2156
cur table: 2146
epoch: 1000
next table: 1652
cur table: 1616
epoch: 1000
next table: 2154
cur table: 2156
epoch: 1000
next table: 1612
cur table: 1652
epoch: 1000
next table: 2156
cur table: 2154
epoch: 1000
next table: 1613
cur table: 1612
epoch: 1000
next table: 2160
cur table: 2156
epoch: 1000
next table: 1611
cur table: 1613
epoch: 1000
next table: 2156
cur table: 2160
epoch: 1000
next table: 1651
cur table: 1611
epoch: 1000
next table: 2162
cur table: 2156
epoch: 1000
next table: 1636
cur table: 1651
epoch: 1000
next table: 2150
cur table: 2162
epoch: 1000
next table: 1633
cur table: 1636
epoch: 1000
next table: 2152
cur table: 2150
epoch: 1000
next table: 1618
cur table: 1633
epoch: 1000
next table: 2154
cur table: 2152
epoch: 1000
next table: 1620
cur table: 1618
epoch: 1000
next table: 2162
cur table: 2154
epoch: 1000
next table: 1620
cur table: 1620
epoch: 1000
next table: 2152
cur table: 2162
epoch: 1000
next table: 1631
cur table: 1620
epoch: 1000
next table: 2161
cur table: 2152
epoch: 1000
next table: 1650
cur table: 1631
epoch: 1000
next table: 2156
cur table: 2161
epoch: 1000
next table: 1629
cur table: 1650
epoch: 1000
next table: 2156
cur table: 2156
epoch: 1000
next table: 1646
cur table: 1629
epoch: 1000
next table: 2155
cur table: 2156
epoch: 1000
next table: 1643
cur table: 1646
epoch: 1000
next table: 2158
cur table: 2155
epoch: 1000
next table: 1677
cur table: 1643
epoch: 1000
next table: 1630
cur table: 1677
epoch: 1000
next table: 2163
cur table: 2158
epoch: 1000
next table: 1643
cur table: 1630
epoch: 1000
next table: 2154
cur table: 2163
epoch: 1000
next table: 1633
cur table: 1643
epoch: 1000
next table: 2157
cur table: 2154
epoch: 1000
next table: 1642
cur table: 1633
epoch: 1000
next table: 2152
cur table: 2157
epoch: 1000
next table: 1604
cur table: 1642
epoch: 1000
next table: 2157
cur table: 2152
epoch: 1000
next table: 1612
cur table: 1604
epoch: 1000
next table: 2143
cur table: 2157
epoch: 1000
next table: 1667
cur table: 1612
epoch: 1000
next table: 2161
cur table: 2143
epoch: 1000
next table: 1617
cur table: 1667
epoch: 1000
next table: 2154
cur table: 2161
epoch: 1000
next table: 1594
cur table: 1617
epoch: 1000
next table: 2151
cur table: 2154
epoch: 1000
next table: 1612
cur table: 1594
epoch: 1000
next table: 2160
cur table: 2151
epoch: 1000
next table: 1603
cur table: 1612
epoch: 1000
next table: 2150
cur table: 2160
epoch: 1000
next table: 1615
cur table: 1603
epoch: 1000
next table: 2154
cur table: 2150
epoch: 1000
next table: 1642
cur table: 1615
epoch: 1000
next table: 2149
cur table: 2154
epoch: 1000
next table: 1631
cur table: 1642
epoch: 1000
next table: 1617
cur table: 1631
epoch: 1000
next table: 2154
cur table: 2149
epoch: 1000
next table: 1609
cur table: 1617
epoch: 1000
next table: 2162
cur table: 2154
epoch: 1000
next table: 1636
cur table: 1609
epoch: 1000
next table: 2151
cur table: 2162
epoch: 1000
next table: 1649
cur table: 1636
epoch: 1000
next table: 2153
cur table: 2151
epoch: 1000
next table: 1648
cur table: 1649
epoch: 1000
next table: 2151
cur table: 2153
epoch: 1000
next table: 1632
cur table: 1648
epoch: 1000
next table: 2165
cur table: 2151
epoch: 1000
next table: 1670
cur table: 1632
epoch: 1000
next table: 2150
cur table: 2165
epoch: 1000
next table: 1635
cur table: 1670
epoch: 1000
next table: 2155
cur table: 2150
epoch: 1000
next table: 1629
cur table: 1635
epoch: 1000
next table: 2160
cur table: 2155
epoch: 1000
next table: 1616
cur table: 1629
epoch: 1000
next table: 2164
cur table: 2160
epoch: 1000
next table: 1633
cur table: 1616
epoch: 1000
next table: 2155
cur table: 2164
epoch: 1000
next table: 1613
cur table: 1633
epoch: 1000
next table: 2162
cur table: 2155
epoch: 1000
next table: 1620
cur table: 1613
epoch: 1000
next table: 2155
cur table: 2162
epoch: 1000
next table: 1615
cur table: 1620
epoch: 1000
next table: 2158
cur table: 2155
epoch: 1000
next table: 1639
cur table: 1615
epoch: 1000
next table: 2153
cur table: 2158
epoch: 1000
next table: 1615
cur table: 1639
epoch: 1000
next table: 2154
cur table: 2153
epoch: 1000
next table: 1660
cur table: 1615
epoch: 1000
next table: 2149
cur table: 2154
epoch: 1000
next table: 1645
cur table: 1660
epoch: 1000
next table: 1659
cur table: 1645
epoch: 1000
next table: 2148
cur table: 2149
epoch: 1000
next table: 1654
cur table: 1659
epoch: 1000
next table: 2153
cur table: 2148
epoch: 1000
next table: 1614
cur table: 1654
epoch: 1000
next table: 2155
cur table: 2153
epoch: 1000
next table: 1654
cur table: 1614
epoch: 1000
next table: 2156
cur table: 2155
epoch: 1000
next table: 1613
cur table: 1654
epoch: 1000
next table: 2156
cur table: 2156
epoch: 1000
next table: 1595
cur table: 1613
epoch: 1000
next table: 2155
cur table: 2156
epoch: 1000
next table: 1635
cur table: 1595
epoch: 1000
next table: 2149
cur table: 2155
epoch: 1000
next table: 1639
cur table: 1635
epoch: 1000
next table: 2151
cur table: 2149
epoch: 1000
next table: 1638
cur table: 1639
epoch: 1000
next table: 2152
cur table: 2151
epoch: 1000
next table: 1641
cur table: 1638
epoch: 1000
next table: 2157
cur table: 2152
epoch: 1000
next table: 1666
cur table: 1641
epoch: 1000
next table: 2154
cur table: 2157
epoch: 1000
next table: 1649
cur table: 1666
epoch: 1000
next table: 2151
cur table: 2154
epoch: 1000
next table: 1651
cur table: 1649
epoch: 1000
next table: 2151
cur table: 2151
epoch: 1000
next table: 1646
cur table: 1651
epoch: 1000
next table: 2155
cur table: 2151
epoch: 1000
next table: 1637
cur table: 1646
epoch: 1000
next table: 2151
cur table: 2155
epoch: 1000
next table: 1614
cur table: 1637
epoch: 1000
next table: 2157
cur table: 2151
epoch: 1000
next table: 1624
cur table: 1614
epoch: 1000
next table: 2154
cur table: 2157
epoch: 1000
next table: 1637
cur table: 1624
epoch: 1000
next table: 2171
cur table: 2154
epoch: 1000
next table: 1631
cur table: 1637
epoch: 1000
next table: 2155
cur table: 2171
epoch: 1000
next table: 1628
cur table: 1631
epoch: 1000
next table: 2163
cur table: 2155
epoch: 1000
next table: 1626
cur table: 1628
epoch: 1000
next table: 1648
cur table: 1626
epoch: 1000
next table: 2147
cur table: 2163
epoch: 1000
next table: 1638
cur table: 1648
epoch: 1000
next table: 2138
cur table: 2147
epoch: 1000
next table: 1625
cur table: 1638
epoch: 1000
next table: 2158
cur table: 2138
epoch: 1000
next table: 1619
cur table: 1625
epoch: 1000
next table: 2155
cur table: 2158
epoch: 1000
next table: 1598
cur table: 1619
epoch: 1000
next table: 2152
cur table: 2155
epoch: 1000
next table: 1579
cur table: 1598
epoch: 1000
next table: 2147
cur table: 2152
epoch: 1000
next table: 1623
cur table: 1579
epoch: 1000
next table: 2151
cur table: 2147
epoch: 1000
next table: 1622
cur table: 1623
epoch: 1000
next table: 2158
cur table: 2151
epoch: 1000
next table: 1632
cur table: 1622
epoch: 1000
next table: 2156
cur table: 2158
epoch: 1000
next table: 1613
cur table: 1632
epoch: 1000
next table: 2158
cur table: 2156
epoch: 1000
next table: 1622
cur table: 1613
epoch: 1000
next table: 2165
cur table: 2158
epoch: 1000
next table: 1644
cur table: 1622
epoch: 1000
next table: 2150
cur table: 2165
epoch: 1000
next table: 1633
cur table: 1644
epoch: 1000
next table: 2151
cur table: 2150
epoch: 1000
next table: 1640
cur table: 1633
epoch: 1000
next table: 2153
cur table: 2151
epoch: 1000
next table: 1632
cur table: 1640
epoch: 1000
next table: 2158
cur table: 2153
epoch: 1000
next table: 1652
cur table: 1632
epoch: 1000
next table: 2154
cur table: 2158
epoch: 1000
next table: 1646
cur table: 1652
epoch: 1000
next table: 1647
cur table: 1646
epoch: 1000
next table: 2148
cur table: 2154
epoch: 1000
next table: 1618
cur table: 1647
epoch: 1000
next table: 2161
cur table: 2148
epoch: 1000
next table: 1647
cur table: 1618
epoch: 1000
next table: 2153
cur table: 2161
epoch: 1000
next table: 1645
cur table: 1647
epoch: 1000
next table: 2159
cur table: 2153
epoch: 1000
next table: 1673
cur table: 1645
epoch: 1000
next table: 2153
cur table: 2159
epoch: 1000
next table: 1617
cur table: 1673
epoch: 1000
next table: 2147
cur table: 2153
epoch: 1000
next table: 1650
cur table: 1617
epoch: 1000
next table: 2156
cur table: 2147
epoch: 1000
next table: 1611
cur table: 1650
epoch: 1000
next table: 2147
cur table: 2156
epoch: 1000
next table: 1647
cur table: 1611
epoch: 1000
next table: 2155
cur table: 2147
epoch: 1000
next table: 1658
cur table: 1647
epoch: 1000
next table: 2152
cur table: 2155
epoch: 1000
next table: 1640
cur table: 1658
epoch: 1000
next table: 2155
cur table: 2152
epoch: 1000
next table: 1650
cur table: 1640
epoch: 1000
next table: 2153
cur table: 2155
epoch: 1000
next table: 1615
cur table: 1650
epoch: 1000
next table: 2151
cur table: 2153
epoch: 1000
next table: 1634
cur table: 1615
epoch: 1000
next table: 2152
cur table: 2151
epoch: 1000
next table: 1631
cur table: 1634
epoch: 1000
next table: 2153
cur table: 2152
epoch: 1000
next table: 1630
cur table: 1631
epoch: 1000
next table: 2156
cur table: 2153
epoch: 1000
next table: 1621
cur table: 1630
epoch: 1000
next table: 2148
cur table: 2156
epoch: 1000
next table: 1627
cur table: 1621
epoch: 1000
next table: 2162
cur table: 2148
epoch: 1000
next table: 1632
cur table: 1627
epoch: 1000
next table: 1634
cur table: 1632
epoch: 1000
next table: 2153
cur table: 2162
epoch: 1000
next table: 1627
cur table: 1634
epoch: 1000
next table: 2152
cur table: 2153
epoch: 1000
next table: 1640
cur table: 1627
epoch: 1000
next table: 2156
cur table: 2152
epoch: 1000
next table: 1636
cur table: 1640
epoch: 1000
next table: 2158
cur table: 2156
epoch: 1000
next table: 1633
cur table: 1636
epoch: 1000
next table: 2150
cur table: 2158
epoch: 1000
next table: 1650
cur table: 1633
epoch: 1000
next table: 2164
cur table: 2150
epoch: 1000
next table: 1658
cur table: 1650
epoch: 1000
next table: 2145
cur table: 2164
epoch: 1000
next table: 1618
cur table: 1658
epoch: 1000
next table: 2152
cur table: 2145
epoch: 1000
next table: 1614
cur table: 1618
epoch: 1000
next table: 2158
cur table: 2152
epoch: 1000
next table: 1647
cur table: 1614
epoch: 1000
next table: 2157
cur table: 2158
epoch: 1000
next table: 1633
cur table: 1647
epoch: 1000
next table: 2151
cur table: 2157
epoch: 1000
next table: 1632
cur table: 1633
epoch: 1000
next table: 2152
cur table: 2151
epoch: 1000
next table: 1636
cur table: 1632
epoch: 1000
next table: 2155
cur table: 2152
epoch: 1000
next table: 1631
cur table: 1636
epoch: 1000
next table: 2160
cur table: 2155
epoch: 1000
next table: 1620
cur table: 1631
epoch: 1000
next table: 2151
cur table: 2160
epoch: 1000
next table: 1655
cur table: 1620
epoch: 1000
next table: 2152
cur table: 2151
epoch: 1000
next table: 1651
cur table: 1655
epoch: 1000
next table: 1653
cur table: 1651
epoch: 1000
next table: 2157
cur table: 2152
epoch: 1000
next table: 1644
cur table: 1653
epoch: 1000
next table: 2151
cur table: 2157
epoch: 1000
next table: 1629
cur table: 1644
epoch: 1000
next table: 2149
cur table: 2151
epoch: 1000
next table: 1651
cur table: 1629
epoch: 1000
next table: 2156
cur table: 2149
epoch: 1000
next table: 1636
cur table: 1651
epoch: 1000
next table: 2157
cur table: 2156
epoch: 1000
next table: 1644
cur table: 1636
epoch: 1000
next table: 2153
cur table: 2157
epoch: 1000
next table: 1650
cur table: 1644
epoch: 1000
next table: 2153
cur table: 2153
epoch: 1000
next table: 1645
cur table: 1650
epoch: 1000
next table: 2149
cur table: 2153
epoch: 1000
next table: 1629
cur table: 1645
epoch: 1000
next table: 2159
cur table: 2149
epoch: 1000
next table: 1622
cur table: 1629
epoch: 1000
next table: 2148
cur table: 2159
epoch: 1000
next table: 1608
cur table: 1622
epoch: 1000
next table: 2155
cur table: 2148
epoch: 1000
next table: 1683
cur table: 1608
epoch: 1000
next table: 2155
cur table: 2155
epoch: 1000
next table: 1648
cur table: 1683
epoch: 1000
next table: 2156
cur table: 2155
epoch: 1000
next table: 1645
cur table: 1648
epoch: 1000
next table: 2153
cur table: 2156
epoch: 1000
next table: 1645
cur table: 1645
epoch: 1000
next table: 2151
cur table: 2153
epoch: 1000
next table: 1628
cur table: 1645
epoch: 1000
next table: 2163
cur table: 2151
epoch: 1000
next table: 1618
cur table: 1628
epoch: 1000
next table: 2154
cur table: 2163
epoch: 1000
next table: 1628
cur table: 1618
epoch: 1000
next table: 2149
cur table: 2154
epoch: 1000
next table: 1642
cur table: 1628
epoch: 1000
next table: 2150
cur table: 2149
epoch: 1000
next table: 1651
cur table: 1642
epoch: 1000
next table: 2166
cur table: 2150
epoch: 1000
next table: 1652
cur table: 1651
epoch: 1000
next table: 2153
cur table: 2166
epoch: 1000
next table: 1628
cur table: 1652
epoch: 1000
next table: 2147
cur table: 2153
epoch: 1000
next table: 1645
cur table: 1628
epoch: 1000
next table: 2159
cur table: 2147
epoch: 1000
next table: 1626
cur table: 1645
epoch: 1000
next table: 1630
cur table: 1626
epoch: 1000
next table: 2147
cur table: 2159
epoch: 1000
next table: 1616
cur table: 1630
epoch: 1000
next table: 2150
cur table: 2147
epoch: 1000
next table: 1629
cur table: 1616
epoch: 1000
next table: 2157
cur table: 2150
epoch: 1000
next table: 1637
cur table: 1629
epoch: 1000
next table: 2153
cur table: 2157
epoch: 1000
next table: 1637
cur table: 1637
epoch: 1000
next table: 2152
cur table: 2153
epoch: 1000
next table: 1643
cur table: 1637
epoch: 1000
next table: 2149
cur table: 2152
epoch: 1000
next table: 1646
cur table: 1643
epoch: 1000
next table: 2162
cur table: 2149
epoch: 1000
next table: 1644
cur table: 1646
epoch: 1000
next table: 2155
cur table: 2162
epoch: 1000
next table: 1632
cur table: 1644
epoch: 1000
next table: 2166
cur table: 2155
epoch: 1000
next table: 1655
cur table: 1632
epoch: 1000
next table: 2152
cur table: 2166
epoch: 1000
next table: 1621
cur table: 1655
epoch: 1000
next table: 2154
cur table: 2152
epoch: 1000
next table: 1653
cur table: 1621
epoch: 1000
next table: 2156
cur table: 2154
epoch: 1000
next table: 1631
cur table: 1653
epoch: 1000
next table: 2158
cur table: 2156
epoch: 1000
next table: 1630
cur table: 1631
epoch: 1000
next table: 2153
cur table: 2158
epoch: 1000
next table: 1659
cur table: 1630
epoch: 1000
next table: 2151
cur table: 2153
epoch: 1000
next table: 1614
cur table: 1659
epoch: 1000
next table: 2145
cur table: 2151
epoch: 1000
next table: 1628
cur table: 1614
epoch: 1000
next table: 2163
cur table: 2145
epoch: 1000
next table: 1649
cur table: 1628
epoch: 1000
next table: 2160
cur table: 2163
epoch: 1000
next table: 1655
cur table: 1649
epoch: 1000
next table: 2160
cur table: 2160
epoch: 1000
next table: 1644
cur table: 1655
epoch: 1000
next table: 2153
cur table: 2160
epoch: 1000
next table: 1648
cur table: 1644
epoch: 1000
next table: 1638
cur table: 1648
epoch: 1000
next table: 2147
cur table: 2153
epoch: 1000
next table: 1644
cur table: 1638
epoch: 1000
next table: 2154
cur table: 2147
epoch: 1000
next table: 1672
cur table: 1644
epoch: 1000
next table: 2158
cur table: 2154
epoch: 1000
next table: 1640
cur table: 1672
epoch: 1000
next table: 2143
cur table: 2158
epoch: 1000
next table: 1638
cur table: 1640
epoch: 1000
next table: 2156
cur table: 2143
epoch: 1000
next table: 1668
cur table: 1638
epoch: 1000
next table: 2151
cur table: 2156
epoch: 1000
next table: 1641
cur table: 1668
epoch: 1000
next table: 2158
cur table: 2151
epoch: 1000
next table: 1644
cur table: 1641
epoch: 1000
next table: 2153
cur table: 2158
epoch: 1000
next table: 1639
cur table: 1644
epoch: 1000
next table: 2161
cur table: 2153
epoch: 1000
next table: 1631
cur table: 1639
epoch: 1000
next table: 2159
cur table: 2161
epoch: 1000
next table: 1645
cur table: 1631
epoch: 1000
next table: 2158
cur table: 2159
epoch: 1000
next table: 1630
cur table: 1645
epoch: 1000
next table: 2149
cur table: 2158
epoch: 1000
next table: 1625
cur table: 1630
epoch: 1000
next table: 2161
cur table: 2149
epoch: 1000
next table: 1677
cur table: 1625
epoch: 1000
next table: 2162
cur table: 2161
epoch: 1000
next table: 1614
cur table: 1677
epoch: 1000
next table: 2152
cur table: 2162
epoch: 1000
next table: 1657
cur table: 1614
epoch: 1000
next table: 2155
cur table: 2152
epoch: 1000
next table: 1637
cur table: 1657
epoch: 1000
next table: 2149
cur table: 2155
epoch: 1000
next table: 1640
cur table: 1637
epoch: 1000
next table: 2156
cur table: 2149
epoch: 1000
next table: 1679
cur table: 1640
epoch: 1000
next table: 2151
cur table: 2156
epoch: 1000
next table: 1631
cur table: 1679
epoch: 1000
next table: 2155
cur table: 2151
epoch: 1000
next table: 1669
cur table: 1631
epoch: 1000
next table: 2149
cur table: 2155
epoch: 1000
next table: 1619
cur table: 1669
Heartbeat CPU 0 instructions: 20000000 cycles: 10125648 heartbeat IPC: 1.97314 cumulative IPC: 1.97518 (Simulation time: 0 hr 7 min 55 sec) 
epoch: 1000
next table: 2161
cur table: 2149
epoch: 1000
next table: 1638
cur table: 1619
epoch: 1000
next table: 1639
cur table: 1638
epoch: 1000
next table: 2156
cur table: 2161
epoch: 1000
next table: 1638
cur table: 1639
epoch: 1000
next table: 2156
cur table: 2156
epoch: 1000
next table: 1613
cur table: 1638
epoch: 1000
next table: 2150
cur table: 2156
epoch: 1000
next table: 1632
cur table: 1613
epoch: 1000
next table: 2161
cur table: 2150
epoch: 1000
next table: 1622
cur table: 1632
epoch: 1000
next table: 2151
cur table: 2161
epoch: 1000
next table: 1641
cur table: 1622
epoch: 1000
next table: 2151
cur table: 2151
epoch: 1000
next table: 1654
cur table: 1641
epoch: 1000
next table: 2151
cur table: 2151
epoch: 1000
next table: 1668
cur table: 1654
epoch: 1000
next table: 2154
cur table: 2151
epoch: 1000
next table: 1632
cur table: 1668
epoch: 1000
next table: 2158
cur table: 2154
epoch: 1000
next table: 1594
cur table: 1632
epoch: 1000
next table: 2144
cur table: 2158
epoch: 1000
next table: 1639
cur table: 1594
epoch: 1000
next table: 2147
cur table: 2144
epoch: 1000
next table: 1630
cur table: 1639
epoch: 1000
next table: 2172
cur table: 2147
epoch: 1000
next table: 1629
cur table: 1630
epoch: 1000
next table: 2152
cur table: 2172
epoch: 1000
next table: 1640
cur table: 1629
epoch: 1000
next table: 2148
cur table: 2152
epoch: 1000
next table: 1624
cur table: 1640
epoch: 1000
next table: 2166
cur table: 2148
epoch: 1000
next table: 1646
cur table: 1624
epoch: 1000
next table: 2162
cur table: 2166
epoch: 1000
next table: 1646
cur table: 1646
epoch: 1000
next table: 2156
cur table: 2162
epoch: 1000
next table: 1633
cur table: 1646
epoch: 1000
next table: 1621
cur table: 1633
epoch: 1000
next table: 2150
cur table: 2156
epoch: 1000
next table: 1633
cur table: 1621
epoch: 1000
next table: 2150
cur table: 2150
epoch: 1000
next table: 1663
cur table: 1633
epoch: 1000
next table: 2144
cur table: 2150
epoch: 1000
next table: 1645
cur table: 1663
epoch: 1000
next table: 2156
cur table: 2144
epoch: 1000
next table: 1628
cur table: 1645
epoch: 1000
next table: 2162
cur table: 2156
epoch: 1000
next table: 1655
cur table: 1628
epoch: 1000
next table: 2157
cur table: 2162
epoch: 1000
next table: 1672
cur table: 1655
epoch: 1000
next table: 2152
cur table: 2157
epoch: 1000
next table: 1628
cur table: 1672
epoch: 1000
next table: 2159
cur table: 2152
epoch: 1000
next table: 1652
cur table: 1628
epoch: 1000
next table: 2161
cur table: 2159
epoch: 1000
next table: 1622
cur table: 1652
epoch: 1000
next table: 2160
cur table: 2161
epoch: 1000
next table: 1642
cur table: 1622
epoch: 1000
next table: 2152
cur table: 2160
epoch: 1000
next table: 1628
cur table: 1642
epoch: 1000
next table: 2151
cur table: 2152
epoch: 1000
next table: 1644
cur table: 1628
epoch: 1000
next table: 2157
cur table: 2151
epoch: 1000
next table: 1649
cur table: 1644
epoch: 1000
next table: 2148
cur table: 2157
epoch: 1000
next table: 1638
cur table: 1649
epoch: 1000
next table: 2147
cur table: 2148
epoch: 1000
next table: 1633
cur table: 1638
epoch: 1000
next table: 2150
cur table: 2147
epoch: 1000
next table: 1644
cur table: 1633
epoch: 1000
next table: 2148
cur table: 2150
epoch: 1000
next table: 1612
cur table: 1644
epoch: 1000
next table: 2151
cur table: 2148
epoch: 1000
next table: 1632
cur table: 1612
epoch: 1000
next table: 2157
cur table: 2151
epoch: 1000
next table: 1644
cur table: 1632
epoch: 1000
next table: 1646
cur table: 1644
epoch: 1000
next table: 2153
cur table: 2157
epoch: 1000
next table: 1643
cur table: 1646
epoch: 1000
next table: 2155
cur table: 2153
epoch: 1000
next table: 1614
cur table: 1643
epoch: 1000
next table: 2155
cur table: 2155
epoch: 1000
next table: 1638
cur table: 1614
epoch: 1000
next table: 2157
cur table: 2155
epoch: 1000
next table: 1628
cur table: 1638
epoch: 1000
next table: 2146
cur table: 2157
epoch: 1000
next table: 1646
cur table: 1628
epoch: 1000
next table: 2154
cur table: 2146
epoch: 1000
next table: 1643
cur table: 1646
epoch: 1000
next table: 2162
cur table: 2154
epoch: 1000
next table: 1674
cur table: 1643
epoch: 1000
next table: 2150
cur table: 2162
epoch: 1000
next table: 1636
cur table: 1674
epoch: 1000
next table: 2166
cur table: 2150
epoch: 1000
next table: 1629
cur table: 1636
epoch: 1000
next table: 2155
cur table: 2166
epoch: 1000
next table: 1662
cur table: 1629
epoch: 1000
next table: 2152
cur table: 2155
epoch: 1000
next table: 1628
cur table: 1662
epoch: 1000
next table: 2150
cur table: 2152
epoch: 1000
next table: 1655
cur table: 1628
epoch: 1000
next table: 2152
cur table: 2150
epoch: 1000
next table: 1644
cur table: 1655
epoch: 1000
next table: 2158
cur table: 2152
epoch: 1000
next table: 1633
cur table: 1644
epoch: 1000
next table: 2151
cur table: 2158
epoch: 1000
next table: 1637
cur table: 1633
epoch: 1000
next table: 2161
cur table: 2151
epoch: 1000
next table: 1633
cur table: 1637
epoch: 1000
next table: 2152
cur table: 2161
epoch: 1000
next table: 1645
cur table: 1633
epoch: 1000
next table: 2159
cur table: 2152
epoch: 1000
next table: 1612
cur table: 1645
epoch: 1000
next table: 1622
cur table: 1612
epoch: 1000
next table: 2160
cur table: 2159
epoch: 1000
next table: 1662
cur table: 1622
epoch: 1000
next table: 2152
cur table: 2160
epoch: 1000
next table: 1628
cur table: 1662
epoch: 1000
next table: 2156
cur table: 2152
epoch: 1000
next table: 1620
cur table: 1628
epoch: 1000
next table: 2156
cur table: 2156
epoch: 1000
next table: 1657
cur table: 1620
epoch: 1000
next table: 2155
cur table: 2156
epoch: 1000
next table: 1604
cur table: 1657
epoch: 1000
next table: 2150
cur table: 2155
epoch: 1000
next table: 1610
cur table: 1604
epoch: 1000
next table: 2153
cur table: 2150
epoch: 1000
next table: 1635
cur table: 1610
epoch: 1000
next table: 2149
cur table: 2153
epoch: 1000
next table: 1621
cur table: 1635
epoch: 1000
next table: 2160
cur table: 2149
epoch: 1000
next table: 1625
cur table: 1621
epoch: 1000
next table: 2152
cur table: 2160
epoch: 1000
next table: 1650
cur table: 1625
epoch: 1000
next table: 2157
cur table: 2152
epoch: 1000
next table: 1645
cur table: 1650
epoch: 1000
next table: 2152
cur table: 2157
epoch: 1000
next table: 1647
cur table: 1645
epoch: 1000
next table: 2155
cur table: 2152
epoch: 1000
next table: 1646
cur table: 1647
epoch: 1000
next table: 2152
cur table: 2155
epoch: 1000
next table: 1650
cur table: 1646
epoch: 1000
next table: 1626
cur table: 1650
epoch: 1000
next table: 2151
cur table: 2152
epoch: 1000
next table: 1606
cur table: 1626
epoch: 1000
next table: 2161
cur table: 2151
epoch: 1000
next table: 1615
cur table: 1606
epoch: 1000
next table: 2156
cur table: 2161
epoch: 1000
next table: 1663
cur table: 1615
epoch: 1000
next table: 2148
cur table: 2156
epoch: 1000
next table: 1659
cur table: 1663
epoch: 1000
next table: 2158
cur table: 2148
epoch: 1000
next table: 1610
cur table: 1659
epoch: 1000
next table: 2156
cur table: 2158
epoch: 1000
next table: 1620
cur table: 1610
epoch: 1000
next table: 2159
cur table: 2156
epoch: 1000
next table: 1639
cur table: 1620
epoch: 1000
next table: 2152
cur table: 2159
epoch: 1000
next table: 1664
cur table: 1639
epoch: 1000
next table: 2158
cur table: 2152
epoch: 1000
next table: 1645
cur table: 1664
epoch: 1000
next table: 2154
cur table: 2158
epoch: 1000
next table: 1620
cur table: 1645
epoch: 1000
next table: 2160
cur table: 2154
epoch: 1000
next table: 1626
cur table: 1620
epoch: 1000
next table: 2158
cur table: 2160
epoch: 1000
next table: 1659
cur table: 1626
epoch: 1000
next table: 2156
cur table: 2158
epoch: 1000
next table: 1636
cur table: 1659
epoch: 1000
next table: 2156
cur table: 2156
epoch: 1000
next table: 1629
cur table: 1636
epoch: 1000
next table: 2160
cur table: 2156
epoch: 1000
next table: 1650
cur table: 1629
epoch: 1000
next table: 1630
cur table: 1650
epoch: 1000
next table: 2168
cur table: 2160
epoch: 1000
next table: 1615
cur table: 1630
epoch: 1000
next table: 2144
cur table: 2168
epoch: 1000
next table: 1635
cur table: 1615
epoch: 1000
next table: 2159
cur table: 2144
epoch: 1000
next table: 1640
cur table: 1635
epoch: 1000
next table: 2150
cur table: 2159
epoch: 1000
next table: 1604
cur table: 1640
epoch: 1000
next table: 2152
cur table: 2150
epoch: 1000
next table: 1634
cur table: 1604
epoch: 1000
next table: 2151
cur table: 2152
epoch: 1000
next table: 1637
cur table: 1634
epoch: 1000
next table: 2154
cur table: 2151
epoch: 1000
next table: 1663
cur table: 1637
epoch: 1000
next table: 2155
cur table: 2154
epoch: 1000
next table: 1622
cur table: 1663
epoch: 1000
next table: 2152
cur table: 2155
epoch: 1000
next table: 1639
cur table: 1622
epoch: 1000
next table: 2165
cur table: 2152
epoch: 1000
next table: 1653
cur table: 1639
epoch: 1000
next table: 2157
cur table: 2165
epoch: 1000
next table: 1614
cur table: 1653
epoch: 1000
next table: 2149
cur table: 2157
epoch: 1000
next table: 1674
cur table: 1614
epoch: 1000
next table: 2153
cur table: 2149
epoch: 1000
next table: 1657
cur table: 1674
epoch: 1000
next table: 2151
cur table: 2153
epoch: 1000
next table: 1642
cur table: 1657
epoch: 1000
next table: 2149
cur table: 2151
epoch: 1000
next table: 1645
cur table: 1642
epoch: 1000
next table: 2152
cur table: 2149
epoch: 1000
next table: 1648
cur table: 1645
epoch: 1000
next table: 2159
cur table: 2152
epoch: 1000
next table: 1647
cur table: 1648
epoch: 1000
next table: 2158
cur table: 2159
epoch: 1000
next table: 1632
cur table: 1647
epoch: 1000
next table: 2159
cur table: 2158
epoch: 1000
next table: 1668
cur table: 1632
epoch: 1000
next table: 2155
cur table: 2159
epoch: 1000
next table: 1634
cur table: 1668
epoch: 1000
next table: 2158
cur table: 2155
epoch: 1000
next table: 1643
cur table: 1634
epoch: 1000
next table: 2160
cur table: 2158
epoch: 1000
next table: 1668
cur table: 1643
epoch: 1000
next table: 2154
cur table: 2160
epoch: 1000
next table: 1641
cur table: 1668
epoch: 1000
next table: 2152
cur table: 2154
epoch: 1000
next table: 1658
cur table: 1641
epoch: 1000
next table: 1627
cur table: 1658
epoch: 1000
next table: 2160
cur table: 2152
epoch: 1000
next table: 1658
cur table: 1627
epoch: 1000
next table: 2162
cur table: 2160
epoch: 1000
next table: 1665
cur table: 1658
epoch: 1000
next table: 2159
cur table: 2162
epoch: 1000
next table: 1616
cur table: 1665
epoch: 1000
next table: 2153
cur table: 2159
epoch: 1000
next table: 1649
cur table: 1616
epoch: 1000
next table: 2154
cur table: 2153
epoch: 1000
next table: 1637
cur table: 1649
epoch: 1000
next table: 2160
cur table: 2154
epoch: 1000
next table: 1654
cur table: 1637
epoch: 1000
next table: 2156
cur table: 2160
epoch: 1000
next table: 1675
cur table: 1654
epoch: 1000
next table: 2151
cur table: 2156
epoch: 1000
next table: 1648
cur table: 1675
epoch: 1000
next table: 2167
cur table: 2151
epoch: 1000
next table: 1618
cur table: 1648
epoch: 1000
next table: 2159
cur table: 2167
epoch: 1000
next table: 1637
cur table: 1618
epoch: 1000
next table: 2163
cur table: 2159
epoch: 1000
next table: 1639
cur table: 1637
epoch: 1000
next table: 2151
cur table: 2163
epoch: 1000
next table: 1641
cur table: 1639
epoch: 1000
next table: 2158
cur table: 2151
epoch: 1000
next table: 1614
cur table: 1641
epoch: 1000
next table: 2159
cur table: 2158
epoch: 1000
next table: 1626
cur table: 1614
epoch: 1000
next table: 2146
cur table: 2159
epoch: 1000
next table: 1619
cur table: 1626
epoch: 1000
next table: 2155
cur table: 2146
epoch: 1000
next table: 1622
cur table: 1619
epoch: 1000
next table: 1610
cur table: 1622
epoch: 1000
next table: 2153
cur table: 2155
epoch: 1000
next table: 1631
cur table: 1610
epoch: 1000
next table: 2146
cur table: 2153
epoch: 1000
next table: 1625
cur table: 1631
epoch: 1000
next table: 2158
cur table: 2146
epoch: 1000
next table: 1613
cur table: 1625
epoch: 1000
next table: 2156
cur table: 2158
epoch: 1000
next table: 1649
cur table: 1613
epoch: 1000
next table: 2148
cur table: 2156
epoch: 1000
next table: 1658
cur table: 1649
epoch: 1000
next table: 2159
cur table: 2148
epoch: 1000
next table: 1640
cur table: 1658
epoch: 1000
next table: 2156
cur table: 2159
epoch: 1000
next table: 1632
cur table: 1640
epoch: 1000
next table: 2163
cur table: 2156
epoch: 1000
next table: 1649
cur table: 1632
epoch: 1000
next table: 2150
cur table: 2163
epoch: 1000
next table: 1606
cur table: 1649
epoch: 1000
next table: 2153
cur table: 2150
epoch: 1000
next table: 1607
cur table: 1606
epoch: 1000
next table: 2161
cur table: 2153
epoch: 1000
next table: 1597
cur table: 1607
epoch: 1000
next table: 2145
cur table: 2161
epoch: 1000
next table: 1647
cur table: 1597
epoch: 1000
next table: 2162
cur table: 2145
epoch: 1000
next table: 1628
cur table: 1647
epoch: 1000
next table: 2154
cur table: 2162
epoch: 1000
next table: 1644
cur table: 1628
epoch: 1000
next table: 1636
cur table: 1644
epoch: 1000
next table: 2157
cur table: 2154
epoch: 1000
next table: 1625
cur table: 1636
epoch: 1000
next table: 2163
cur table: 2157
epoch: 1000
next table: 1634
cur table: 1625
epoch: 1000
next table: 2162
cur table: 2163
epoch: 1000
next table: 1672
cur table: 1634
epoch: 1000
next table: 2154
cur table: 2162
epoch: 1000
next table: 1640
cur table: 1672
epoch: 1000
next table: 2163
cur table: 2154
epoch: 1000
next table: 1650
cur table: 1640
epoch: 1000
next table: 2159
cur table: 2163
epoch: 1000
next table: 1642
cur table: 1650
epoch: 1000
next table: 2162
cur table: 2159
epoch: 1000
next table: 1639
cur table: 1642
epoch: 1000
next table: 2154
cur table: 2162
epoch: 1000
next table: 1638
cur table: 1639
epoch: 1000
next table: 2157
cur table: 2154
epoch: 1000
next table: 1645
cur table: 1638
epoch: 1000
next table: 2159
cur table: 2157
epoch: 1000
next table: 1637
cur table: 1645
epoch: 1000
next table: 2159
cur table: 2159
epoch: 1000
next table: 1630
cur table: 1637
epoch: 1000
next table: 2150
cur table: 2159
epoch: 1000
next table: 1652
cur table: 1630
epoch: 1000
next table: 2150
cur table: 2150
epoch: 1000
next table: 1629
cur table: 1652
epoch: 1000
next table: 2151
cur table: 2150
epoch: 1000
next table: 1636
cur table: 1629
epoch: 1000
next table: 2156
cur table: 2151
epoch: 1000
next table: 1647
cur table: 1636
epoch: 1000
next table: 2159
cur table: 2156
epoch: 1000
next table: 1654
cur table: 1647
epoch: 1000
next table: 2158
cur table: 2159
epoch: 1000
next table: 1626
cur table: 1654
epoch: 1000
next table: 2154
cur table: 2158
epoch: 1000
next table: 1651
cur table: 1626
epoch: 1000
next table: 2149
cur table: 2154
epoch: 1000
next table: 1635
cur table: 1651
epoch: 1000
next table: 2154
cur table: 2149
epoch: 1000
next table: 1648
cur table: 1635
epoch: 1000
next table: 2152
cur table: 2154
epoch: 1000
next table: 1628
cur table: 1648
epoch: 1000
next table: 2159
cur table: 2152
epoch: 1000
next table: 1654
cur table: 1628
epoch: 1000
next table: 2157
cur table: 2159
epoch: 1000
next table: 1641
cur table: 1654
epoch: 1000
next table: 2158
cur table: 2157
epoch: 1000
next table: 1655
cur table: 1641
epoch: 1000
next table: 1642
cur table: 1655
epoch: 1000
next table: 2149
cur table: 2158
epoch: 1000
next table: 1706
cur table: 1642
epoch: 1000
next table: 2157
cur table: 2149
epoch: 1000
next table: 1682
cur table: 1706
epoch: 1000
next table: 2156
cur table: 2157
epoch: 1000
next table: 1660
cur table: 1682
epoch: 1000
next table: 2157
cur table: 2156
epoch: 1000
next table: 1653
cur table: 1660
epoch: 1000
next table: 2155
cur table: 2157
epoch: 1000
next table: 1642
cur table: 1653
epoch: 1000
next table: 2148
cur table: 2155
epoch: 1000
next table: 1614
cur table: 1642
epoch: 1000
next table: 2163
cur table: 2148
epoch: 1000
next table: 1673
cur table: 1614
epoch: 1000
next table: 2151
cur table: 2163
epoch: 1000
next table: 1618
cur table: 1673
epoch: 1000
next table: 2151
cur table: 2151
epoch: 1000
next table: 1638
cur table: 1618
epoch: 1000
next table: 2162
cur table: 2151
epoch: 1000
next table: 1640
cur table: 1638
epoch: 1000
next table: 2150
cur table: 2162
epoch: 1000
next table: 1618
cur table: 1640
epoch: 1000
next table: 2158
cur table: 2150
epoch: 1000
next table: 1643
cur table: 1618
epoch: 1000
next table: 2149
cur table: 2158
epoch: 1000
next table: 1636
cur table: 1643
epoch: 1000
next table: 2154
cur table: 2149
epoch: 1000
next table: 1665
cur table: 1636
epoch: 1000
next table: 2148
cur table: 2154
epoch: 1000
next table: 1612
cur table: 1665
epoch: 1000
next table: 2152
cur table: 2148
epoch: 1000
next table: 1636
cur table: 1612
epoch: 1000
next table: 2157
cur table: 2152
epoch: 1000
next table: 1647
cur table: 1636
epoch: 1000
next table: 2153
cur table: 2157
epoch: 1000
next table: 1628
cur table: 1647
epoch: 1000
next table: 2152
cur table: 2153
epoch: 1000
next table: 1644
cur table: 1628
epoch: 1000
next table: 2144
cur table: 2152
epoch: 1000
next table: 1614
cur table: 1644
epoch: 1000
next table: 2157
cur table: 2144
epoch: 1000
next table: 1653
cur table: 1614
epoch: 1000
next table: 2159
cur table: 2157
epoch: 1000
next table: 1635
cur table: 1653
epoch: 1000
next table: 2147
cur table: 2159
epoch: 1000
next table: 1631
cur table: 1635
epoch: 1000
next table: 1630
cur table: 1631
epoch: 1000
next table: 2156
cur table: 2147
epoch: 1000
next table: 1627
cur table: 1630
epoch: 1000
next table: 2161
cur table: 2156
epoch: 1000
next table: 1626
cur table: 1627
epoch: 1000
next table: 2158
cur table: 2161
epoch: 1000
next table: 1618
cur table: 1626
epoch: 1000
next table: 2159
cur table: 2158
epoch: 1000
next table: 1622
cur table: 1618
epoch: 1000
next table: 2157
cur table: 2159
epoch: 1000
next table: 1640
cur table: 1622
epoch: 1000
next table: 2151
cur table: 2157
epoch: 1000
next table: 1650
cur table: 1640
epoch: 1000
next table: 2161
cur table: 2151
epoch: 1000
next table: 1642
cur table: 1650
epoch: 1000
next table: 2153
cur table: 2161
epoch: 1000
next table: 1659
cur table: 1642
epoch: 1000
next table: 2157
cur table: 2153
epoch: 1000
next table: 1655
cur table: 1659
epoch: 1000
next table: 2158
cur table: 2157
epoch: 1000
next table: 1634
cur table: 1655
epoch: 1000
next table: 2162
cur table: 2158
Heartbeat CPU 0 instructions: 30000000 cycles: 15198564 heartbeat IPC: 1.97125 cumulative IPC: 1.97387 (Simulation time: 0 hr 11 min 46 sec) 
epoch: 1000
next table: 1628
cur table: 1634
epoch: 1000
next table: 2155
cur table: 2162
epoch: 1000
next table: 1649
cur table: 1628
epoch: 1000
next table: 2153
cur table: 2155
epoch: 1000
next table: 1650
cur table: 1649
epoch: 1000
next table: 2145
cur table: 2153
epoch: 1000
next table: 1643
cur table: 1650
epoch: 1000
next table: 2156
cur table: 2145
epoch: 1000
next table: 1625
cur table: 1643
epoch: 1000
next table: 2162
cur table: 2156
epoch: 1000
next table: 1636
cur table: 1625
epoch: 1000
next table: 2150
cur table: 2162
epoch: 1000
next table: 1624
cur table: 1636
epoch: 1000
next table: 2156
cur table: 2150
epoch: 1000
next table: 1639
cur table: 1624
epoch: 1000
next table: 2161
cur table: 2156
epoch: 1000
next table: 1618
cur table: 1639
epoch: 1000
next table: 2150
cur table: 2161
epoch: 1000
next table: 1666
cur table: 1618
epoch: 1000
next table: 2156
cur table: 2150
epoch: 1000
next table: 1637
cur table: 1666
epoch: 1000
next table: 1645
cur table: 1637
epoch: 1000
next table: 2158
cur table: 2156
epoch: 1000
next table: 1637
cur table: 1645
epoch: 1000
next table: 2150
cur table: 2158
epoch: 1000
next table: 1669
cur table: 1637
epoch: 1000
next table: 2157
cur table: 2150
epoch: 1000
next table: 1629
cur table: 1669
epoch: 1000
next table: 2161
cur table: 2157
epoch: 1000
next table: 1627
cur table: 1629
epoch: 1000
next table: 2163
cur table: 2161
epoch: 1000
next table: 1677
cur table: 1627
epoch: 1000
next table: 2156
cur table: 2163
epoch: 1000
next table: 1643
cur table: 1677
epoch: 1000
next table: 2153
cur table: 2156
epoch: 1000
next table: 1645
cur table: 1643
epoch: 1000
next table: 2147
cur table: 2153
epoch: 1000
next table: 1649
cur table: 1645
epoch: 1000
next table: 2167
cur table: 2147
epoch: 1000
next table: 1652
cur table: 1649
epoch: 1000
next table: 2151
cur table: 2167
epoch: 1000
next table: 1641
cur table: 1652
epoch: 1000
next table: 2152
cur table: 2151
epoch: 1000
next table: 1642
cur table: 1641
epoch: 1000
next table: 2152
cur table: 2152
epoch: 1000
next table: 1633
cur table: 1642
epoch: 1000
next table: 2157
cur table: 2152
epoch: 1000
next table: 1654
cur table: 1633
epoch: 1000
next table: 2153
cur table: 2157
epoch: 1000
next table: 1637
cur table: 1654
epoch: 1000
next table: 2152
cur table: 2153
epoch: 1000
next table: 1633
cur table: 1637
epoch: 1000
next table: 2146
cur table: 2152
epoch: 1000
next table: 1634
cur table: 1633
epoch: 1000
next table: 2155
cur table: 2146
epoch: 1000
next table: 1608
cur table: 1634
epoch: 1000
next table: 2148
cur table: 2155
epoch: 1000
next table: 1597
cur table: 1608
epoch: 1000
next table: 1566
cur table: 1597
epoch: 1000
next table: 2156
cur table: 2148
epoch: 1000
next table: 1617
cur table: 1566
epoch: 1000
next table: 2157
cur table: 2156
epoch: 1000
next table: 1609
cur table: 1617
epoch: 1000
next table: 2153
cur table: 2157
epoch: 1000
next table: 1631
cur table: 1609
epoch: 1000
next table: 2155
cur table: 2153
epoch: 1000
next table: 1644
cur table: 1631
epoch: 1000
next table: 2155
cur table: 2155
epoch: 1000
next table: 1634
cur table: 1644
epoch: 1000
next table: 2146
cur table: 2155
epoch: 1000
next table: 1627
cur table: 1634
epoch: 1000
next table: 2157
cur table: 2146
epoch: 1000
next table: 1592
cur table: 1627
epoch: 1000
next table: 2157
cur table: 2157
epoch: 1000
next table: 1603
cur table: 1592
epoch: 1000
next table: 2160
cur table: 2157
epoch: 1000
next table: 1611
cur table: 1603
epoch: 1000
next table: 2149
cur table: 2160
epoch: 1000
next table: 1623
cur table: 1611
epoch: 1000
next table: 2154
cur table: 2149
epoch: 1000
next table: 1641
cur table: 1623
epoch: 1000
next table: 2161
cur table: 2154
epoch: 1000
next table: 1637
cur table: 1641
epoch: 1000
next table: 2156
cur table: 2161
epoch: 1000
next table: 1615
cur table: 1637
epoch: 1000
next table: 2150
cur table: 2156
epoch: 1000
next table: 1658
cur table: 1615
epoch: 1000
next table: 2157
cur table: 2150
epoch: 1000
next table: 1634
cur table: 1658
epoch: 1000
next table: 2150
cur table: 2157
epoch: 1000
next table: 1642
cur table: 1634
epoch: 1000
next table: 1641
cur table: 1642
epoch: 1000
next table: 2161
cur table: 2150
epoch: 1000
next table: 1618
cur table: 1641
epoch: 1000
next table: 2158
cur table: 2161
epoch: 1000
next table: 1641
cur table: 1618
epoch: 1000
next table: 2153
cur table: 2158
epoch: 1000
next table: 1629
cur table: 1641
epoch: 1000
next table: 2147
cur table: 2153
epoch: 1000
next table: 1648
cur table: 1629
epoch: 1000
next table: 2153
cur table: 2147
epoch: 1000
next table: 1640
cur table: 1648
epoch: 1000
next table: 2150
cur table: 2153
epoch: 1000
next table: 1636
cur table: 1640
epoch: 1000
next table: 2152
cur table: 2150
epoch: 1000
next table: 1658
cur table: 1636
epoch: 1000
next table: 2168
cur table: 2152
epoch: 1000
next table: 1655
cur table: 1658
epoch: 1000
next table: 2151
cur table: 2168
epoch: 1000
next table: 1632
cur table: 1655
epoch: 1000
next table: 2153
cur table: 2151
epoch: 1000
next table: 1642
cur table: 1632
epoch: 1000
next table: 2157
cur table: 2153
epoch: 1000
next table: 1635
cur table: 1642
epoch: 1000
next table: 2150
cur table: 2157
epoch: 1000
next table: 1648
cur table: 1635
epoch: 1000
next table: 2155
cur table: 2150
epoch: 1000
next table: 1668
cur table: 1648
epoch: 1000
next table: 2156
cur table: 2155
epoch: 1000
next table: 1641
cur table: 1668
epoch: 1000
next table: 2165
cur table: 2156
epoch: 1000
next table: 1630
cur table: 1641
epoch: 1000
next table: 2153
cur table: 2165
epoch: 1000
next table: 1661
cur table: 1630
epoch: 1000
next table: 2165
cur table: 2153
epoch: 1000
next table: 1630
cur table: 1661
epoch: 1000
next table: 2159
cur table: 2165
epoch: 1000
next table: 1608
cur table: 1630
epoch: 1000
next table: 2158
cur table: 2159
epoch: 1000
next table: 1634
cur table: 1608
epoch: 1000
next table: 1634
cur table: 1634
epoch: 1000
next table: 2161
cur table: 2158
epoch: 1000
next table: 1655
cur table: 1634
epoch: 1000
next table: 2156
cur table: 2161
epoch: 1000
next table: 1647
cur table: 1655
epoch: 1000
next table: 2153
cur table: 2156
epoch: 1000
next table: 1639
cur table: 1647
epoch: 1000
next table: 2152
cur table: 2153
epoch: 1000
next table: 1638
cur table: 1639
epoch: 1000
next table: 2144
cur table: 2152
epoch: 1000
next table: 1618
cur table: 1638
epoch: 1000
next table: 2161
cur table: 2144
epoch: 1000
next table: 1639
cur table: 1618
epoch: 1000
next table: 2155
cur table: 2161
epoch: 1000
next table: 1611
cur table: 1639
epoch: 1000
next table: 2146
cur table: 2155
epoch: 1000
next table: 1641
cur table: 1611
epoch: 1000
next table: 2162
cur table: 2146
epoch: 1000
next table: 1623
cur table: 1641
epoch: 1000
next table: 2155
cur table: 2162
epoch: 1000
next table: 1625
cur table: 1623
epoch: 1000
next table: 2159
cur table: 2155
epoch: 1000
next table: 1619
cur table: 1625
epoch: 1000
next table: 2164
cur table: 2159
epoch: 1000
next table: 1606
cur table: 1619
epoch: 1000
next table: 2158
cur table: 2164
epoch: 1000
next table: 1650
cur table: 1606
epoch: 1000
next table: 2154
cur table: 2158
epoch: 1000
next table: 1600
cur table: 1650
epoch: 1000
next table: 1643
cur table: 1600
epoch: 1000
next table: 2157
cur table: 2154
epoch: 1000
next table: 1620
cur table: 1643
epoch: 1000
next table: 2153
cur table: 2157
epoch: 1000
next table: 1616
cur table: 1620
epoch: 1000
next table: 2159
cur table: 2153
epoch: 1000
next table: 1626
cur table: 1616
epoch: 1000
next table: 2146
cur table: 2159
epoch: 1000
next table: 1620
cur table: 1626
epoch: 1000
next table: 2144
cur table: 2146
epoch: 1000
next table: 1638
cur table: 1620
epoch: 1000
next table: 2155
cur table: 2144
epoch: 1000
next table: 1663
cur table: 1638
epoch: 1000
next table: 2154
cur table: 2155
epoch: 1000
next table: 1650
cur table: 1663
epoch: 1000
next table: 2152
cur table: 2154
epoch: 1000
next table: 1613
cur table: 1650
epoch: 1000
next table: 2158
cur table: 2152
epoch: 1000
next table: 1618
cur table: 1613
epoch: 1000
next table: 2157
cur table: 2158
epoch: 1000
next table: 1633
cur table: 1618
epoch: 1000
next table: 2160
cur table: 2157
epoch: 1000
next table: 1661
cur table: 1633
epoch: 1000
next table: 2151
cur table: 2160
epoch: 1000
next table: 1636
cur table: 1661
epoch: 1000
next table: 2155
cur table: 2151
epoch: 1000
next table: 1630
cur table: 1636
epoch: 1000
next table: 2156
cur table: 2155
epoch: 1000
next table: 1643
cur table: 1630
epoch: 1000
next table: 2155
cur table: 2156
epoch: 1000
next table: 1645
cur table: 1643
epoch: 1000
next table: 2140
cur table: 2155
epoch: 1000
next table: 1645
cur table: 1645
epoch: 1000
next table: 2158
cur table: 2140
epoch: 1000
next table: 1638
cur table: 1645
epoch: 1000
next table: 2156
cur table: 2158
epoch: 1000
next table: 1619
cur table: 1638
epoch: 1000
next table: 2145
cur table: 2156
epoch: 1000
next table: 1620
cur table: 1619
epoch: 1000
next table: 1640
cur table: 1620
epoch: 1000
next table: 2160
cur table: 2145
epoch: 1000
next table: 1601
cur table: 1640
epoch: 1000
next table: 2169
cur table: 2160
epoch: 1000
next table: 1614
cur table: 1601
epoch: 1000
next table: 2163
cur table: 2169
epoch: 1000
next table: 1616
cur table: 1614
epoch: 1000
next table: 2147
cur table: 2163
epoch: 1000
next table: 1639
cur table: 1616
epoch: 1000
next table: 2159
cur table: 2147
epoch: 1000
next table: 1653
cur table: 1639
epoch: 1000
next table: 2154
cur table: 2159
epoch: 1000
next table: 1650
cur table: 1653
epoch: 1000
next table: 2155
cur table: 2154
epoch: 1000
next table: 1633
cur table: 1650
epoch: 1000
next table: 2155
cur table: 2155
epoch: 1000
next table: 1642
cur table: 1633
epoch: 1000
next table: 2158
cur table: 2155
epoch: 1000
next table: 1617
cur table: 1642
epoch: 1000
next table: 2158
cur table: 2158
epoch: 1000
next table: 1614
cur table: 1617
epoch: 1000
next table: 2167
cur table: 2158
epoch: 1000
next table: 1620
cur table: 1614
epoch: 1000
next table: 2154
cur table: 2167
epoch: 1000
next table: 1627
cur table: 1620
epoch: 1000
next table: 2156
cur table: 2154
epoch: 1000
next table: 1615
cur table: 1627
epoch: 1000
next table: 2155
cur table: 2156
epoch: 1000
next table: 1614
cur table: 1615
epoch: 1000
next table: 2158
cur table: 2155
epoch: 1000
next table: 1631
cur table: 1614
epoch: 1000
next table: 1637
cur table: 1631
epoch: 1000
next table: 2160
cur table: 2158
epoch: 1000
next table: 1632
cur table: 1637
epoch: 1000
next table: 2161
cur table: 2160
epoch: 1000
next table: 1636
cur table: 1632
epoch: 1000
next table: 2151
cur table: 2161
epoch: 1000
next table: 1634
cur table: 1636
epoch: 1000
next table: 2156
cur table: 2151
epoch: 1000
next table: 1659
cur table: 1634
epoch: 1000
next table: 2158
cur table: 2156
epoch: 1000
next table: 1622
cur table: 1659
epoch: 1000
next table: 2150
cur table: 2158
epoch: 1000
next table: 1621
cur table: 1622
epoch: 1000
next table: 2154
cur table: 2150
epoch: 1000
next table: 1644
cur table: 1621
epoch: 1000
next table: 2155
cur table: 2154
epoch: 1000
next table: 1648
cur table: 1644
epoch: 1000
next table: 2147
cur table: 2155
epoch: 1000
next table: 1607
cur table: 1648
epoch: 1000
next table: 2156
cur table: 2147
epoch: 1000
next table: 1647
cur table: 1607
epoch: 1000
next table: 2170
cur table: 2156
epoch: 1000
next table: 1636
cur table: 1647
epoch: 1000
next table: 2152
cur table: 2170
epoch: 1000
next table: 1613
cur table: 1636
epoch: 1000
next table: 2153
cur table: 2152
epoch: 1000
next table: 1635
cur table: 1613
epoch: 1000
next table: 2156
cur table: 2153
epoch: 1000
next table: 1612
cur table: 1635
epoch: 1000
next table: 2158
cur table: 2156
epoch: 1000
next table: 1659
cur table: 1612
epoch: 1000
next table: 2157
cur table: 2158
epoch: 1000
next table: 1663
cur table: 1659
epoch: 1000
next table: 2155
cur table: 2157
epoch: 1000
next table: 1638
cur table: 1663
epoch: 1000
next table: 2151
cur table: 2155
epoch: 1000
next table: 1643
cur table: 1638
epoch: 1000
next table: 1646
cur table: 1643
epoch: 1000
next table: 2152
cur table: 2151
epoch: 1000
next table: 1648
cur table: 1646
epoch: 1000
next table: 2160
cur table: 2152
epoch: 1000
next table: 1649
cur table: 1648
epoch: 1000
next table: 2158
cur table: 2160
epoch: 1000
next table: 1616
cur table: 1649
epoch: 1000
next table: 2158
cur table: 2158
epoch: 1000
next table: 1633
cur table: 1616
epoch: 1000
next table: 2158
cur table: 2158
epoch: 1000
next table: 1636
cur table: 1633
epoch: 1000
next table: 2159
cur table: 2158
epoch: 1000
next table: 1606
cur table: 1636
epoch: 1000
next table: 2161
cur table: 2159
epoch: 1000
next table: 1584
cur table: 1606
epoch: 1000
next table: 2153
cur table: 2161
epoch: 1000
next table: 1633
cur table: 1584
epoch: 1000
next table: 2154
cur table: 2153
epoch: 1000
next table: 1608
cur table: 1633
epoch: 1000
next table: 2156
cur table: 2154
epoch: 1000
next table: 1632
cur table: 1608
epoch: 1000
next table: 2147
cur table: 2156
epoch: 1000
next table: 1622
cur table: 1632
epoch: 1000
next table: 2153
cur table: 2147
epoch: 1000
next table: 1639
cur table: 1622
epoch: 1000
next table: 2155
cur table: 2153
epoch: 1000
next table: 1609
cur table: 1639
epoch: 1000
next table: 2152
cur table: 2155
epoch: 1000
next table: 1627
cur table: 1609
epoch: 1000
next table: 1611
cur table: 1627
epoch: 1000
next table: 2150
cur table: 2152
epoch: 1000
next table: 1652
cur table: 1611
epoch: 1000
next table: 2159
cur table: 2150
epoch: 1000
next table: 1639
cur table: 1652
epoch: 1000
next table: 2158
cur table: 2159
epoch: 1000
next table: 1635
cur table: 1639
epoch: 1000
next table: 2157
cur table: 2158
epoch: 1000
next table: 1646
cur table: 1635
epoch: 1000
next table: 2151
cur table: 2157
epoch: 1000
next table: 1618
cur table: 1646
epoch: 1000
next table: 2147
cur table: 2151
epoch: 1000
next table: 1625
cur table: 1618
epoch: 1000
next table: 2160
cur table: 2147
epoch: 1000
next table: 1629
cur table: 1625
epoch: 1000
next table: 2158
cur table: 2160
epoch: 1000
next table: 1633
cur table: 1629
epoch: 1000
next table: 2158
cur table: 2158
epoch: 1000
next table: 1630
cur table: 1633
epoch: 1000
next table: 2151
cur table: 2158
epoch: 1000
next table: 1629
cur table: 1630
epoch: 1000
next table: 2152
cur table: 2151
epoch: 1000
next table: 1627
cur table: 1629
epoch: 1000
next table: 2158
cur table: 2152
epoch: 1000
next table: 1641
cur table: 1627
epoch: 1000
next table: 2168
cur table: 2158
epoch: 1000
next table: 1628
cur table: 1641
epoch: 1000
next table: 2167
cur table: 2168
epoch: 1000
next table: 1639
cur table: 1628
epoch: 1000
next table: 1629
cur table: 1639
epoch: 1000
next table: 2161
cur table: 2167
epoch: 1000
next table: 1620
cur table: 1629
epoch: 1000
next table: 2171
cur table: 2161
epoch: 1000
next table: 1629
cur table: 1620
epoch: 1000
next table: 2158
cur table: 2171
epoch: 1000
next table: 1618
cur table: 1629
epoch: 1000
next table: 2165
cur table: 2158
epoch: 1000
next table: 1632
cur table: 1618
epoch: 1000
next table: 2163
cur table: 2165
epoch: 1000
next table: 1630
cur table: 1632
epoch: 1000
next table: 2152
cur table: 2163
epoch: 1000
next table: 1648
cur table: 1630
epoch: 1000
next table: 2161
cur table: 2152
epoch: 1000
next table: 1601
cur table: 1648
epoch: 1000
next table: 2154
cur table: 2161
epoch: 1000
next table: 1611
cur table: 1601
epoch: 1000
next table: 2153
cur table: 2154
epoch: 1000
next table: 1607
cur table: 1611
epoch: 1000
next table: 2156
cur table: 2153
epoch: 1000
next table: 1589
cur table: 1607
epoch: 1000
next table: 1596
cur table: 1589
epoch: 1000
next table: 2154
cur table: 2156
epoch: 1000
next table: 1589
cur table: 1596
epoch: 1000
next table: 2158
cur table: 2154
epoch: 1000
next table: 1627
cur table: 1589
epoch: 1000
next table: 2154
cur table: 2158
epoch: 1000
next table: 1599
cur table: 1627
epoch: 1000
next table: 2152
cur table: 2154
epoch: 1000
next table: 1621
cur table: 1599
epoch: 1000
next table: 2147
cur table: 2152
epoch: 1000
next table: 1640
cur table: 1621
epoch: 1000
next table: 2143
cur table: 2147
epoch: 1000
next table: 1606
cur table: 1640
epoch: 1000
next table: 2148
cur table: 2143
epoch: 1000
next table: 1620
cur table: 1606
epoch: 1000
next table: 2160
cur table: 2148
epoch: 1000
next table: 1623
cur table: 1620
epoch: 1000
next table: 2152
cur table: 2160
epoch: 1000
next table: 1613
cur table: 1623
epoch: 1000
next table: 2136
cur table: 2152
epoch: 1000
next table: 1608
cur table: 1613
epoch: 1000
next table: 2161
cur table: 2136
epoch: 1000
next table: 1656
cur table: 1608
epoch: 1000
next table: 2151
cur table: 2161
epoch: 1000
next table: 1642
cur table: 1656
epoch: 1000
next table: 1629
cur table: 1642
epoch: 1000
next table: 2156
cur table: 2151
epoch: 1000
next table: 1626
cur table: 1629
epoch: 1000
next table: 2154
cur table: 2156
epoch: 1000
next table: 1632
cur table: 1626
epoch: 1000
next table: 2159
cur table: 2154
epoch: 1000
next table: 1631
cur table: 1632
epoch: 1000
next table: 2160
cur table: 2159
epoch: 1000
next table: 1666
cur table: 1631
epoch: 1000
next table: 2147
cur table: 2160
epoch: 1000
next table: 1654
cur table: 1666
epoch: 1000
next table: 2154
cur table: 2147
epoch: 1000
next table: 1700
cur table: 1654
epoch: 1000
next table: 2142
cur table: 2154
epoch: 1000
next table: 1642
cur table: 1700
epoch: 1000
next table: 2157
cur table: 2142
epoch: 1000
next table: 1618
cur table: 1642
epoch: 1000
next table: 2155
cur table: 2157
epoch: 1000
next table: 1648
cur table: 1618
epoch: 1000
next table: 2151
cur table: 2155
epoch: 1000
next table: 1631
cur table: 1648
epoch: 1000
next table: 2154
cur table: 2151
epoch: 1000
next table: 1669
cur table: 1631
epoch: 1000
next table: 2152
cur table: 2154
epoch: 1000
next table: 1626
cur table: 1669
epoch: 1000
next table: 2151
cur table: 2152
epoch: 1000
next table: 1622
cur table: 1626
epoch: 1000
next table: 2150
cur table: 2151
epoch: 1000
next table: 1639
cur table: 1622
epoch: 1000
next table: 2163
cur table: 2150
epoch: 1000
next table: 1641
cur table: 1639
epoch: 1000
next table: 2155
cur table: 2163
epoch: 1000
next table: 1644
cur table: 1641
epoch: 1000
next table: 2154
cur table: 2155
Heartbeat CPU 0 instructions: 40000002 cycles: 20263741 heartbeat IPC: 1.97427 cumulative IPC: 1.97397 (Simulation time: 0 hr 15 min 34 sec) 
epoch: 1000
next table: 1643
cur table: 1644
epoch: 1000
next table: 2148
cur table: 2154
epoch: 1000
next table: 1638
cur table: 1643
epoch: 1000
next table: 2149
cur table: 2148
epoch: 1000
next table: 1609
cur table: 1638
epoch: 1000
next table: 2151
cur table: 2149
epoch: 1000
next table: 1624
cur table: 1609
epoch: 1000
next table: 2150
cur table: 2151
epoch: 1000
next table: 1612
cur table: 1624
epoch: 1000
next table: 2163
cur table: 2150
epoch: 1000
next table: 1625
cur table: 1612
epoch: 1000
next table: 2155
cur table: 2163
epoch: 1000
next table: 1643
cur table: 1625
epoch: 1000
next table: 2150
cur table: 2155
epoch: 1000
next table: 1624
cur table: 1643
epoch: 1000
next table: 1635
cur table: 1624
epoch: 1000
next table: 2157
cur table: 2150
epoch: 1000
next table: 1614
cur table: 1635
epoch: 1000
next table: 2164
cur table: 2157
epoch: 1000
next table: 1629
cur table: 1614
epoch: 1000
next table: 2159
cur table: 2164
epoch: 1000
next table: 1656
cur table: 1629
epoch: 1000
next table: 2161
cur table: 2159
epoch: 1000
next table: 1645
cur table: 1656
epoch: 1000
next table: 2159
cur table: 2161
epoch: 1000
next table: 1627
cur table: 1645
epoch: 1000
next table: 2155
cur table: 2159
epoch: 1000
next table: 1599
cur table: 1627
epoch: 1000
next table: 2159
cur table: 2155
epoch: 1000
next table: 1622
cur table: 1599
epoch: 1000
next table: 2153
cur table: 2159
epoch: 1000
next table: 1608
cur table: 1622
epoch: 1000
next table: 2153
cur table: 2153
epoch: 1000
next table: 1622
cur table: 1608
epoch: 1000
next table: 2154
cur table: 2153
epoch: 1000
next table: 1629
cur table: 1622
epoch: 1000
next table: 2153
cur table: 2154
epoch: 1000
next table: 1622
cur table: 1629
epoch: 1000
next table: 2152
cur table: 2153
epoch: 1000
next table: 1617
cur table: 1622
epoch: 1000
next table: 2153
cur table: 2152
epoch: 1000
next table: 1619
cur table: 1617
epoch: 1000
next table: 1599
cur table: 1619
epoch: 1000
next table: 2160
cur table: 2153
epoch: 1000
next table: 1579
cur table: 1599
epoch: 1000
next table: 2153
cur table: 2160
epoch: 1000
next table: 1612
cur table: 1579
epoch: 1000
next table: 2167
cur table: 2153
epoch: 1000
next table: 1639
cur table: 1612
epoch: 1000
next table: 2151
cur table: 2167
epoch: 1000
next table: 1624
cur table: 1639
epoch: 1000
next table: 2160
cur table: 2151
epoch: 1000
next table: 1592
cur table: 1624
epoch: 1000
next table: 2147
cur table: 2160
epoch: 1000
next table: 1582
cur table: 1592
epoch: 1000
next table: 2157
cur table: 2147
epoch: 1000
next table: 1617
cur table: 1582
epoch: 1000
next table: 2159
cur table: 2157
epoch: 1000
next table: 1603
cur table: 1617
epoch: 1000
next table: 2152
cur table: 2159
epoch: 1000
next table: 1617
cur table: 1603
epoch: 1000
next table: 2151
cur table: 2152
epoch: 1000
next table: 1647
cur table: 1617
epoch: 1000
next table: 1604
cur table: 1647
epoch: 1000
next table: 2161
cur table: 2151
epoch: 1000
next table: 1645
cur table: 1604
epoch: 1000
next table: 2156
cur table: 2161
epoch: 1000
next table: 1630
cur table: 1645
epoch: 1000
next table: 2158
cur table: 2156
epoch: 1000
next table: 1641
cur table: 1630
epoch: 1000
next table: 2150
cur table: 2158
epoch: 1000
next table: 1662
cur table: 1641
epoch: 1000
next table: 2157
cur table: 2150
epoch: 1000
next table: 1635
cur table: 1662
epoch: 1000
next table: 2155
cur table: 2157
epoch: 1000
next table: 1643
cur table: 1635
epoch: 1000
next table: 2159
cur table: 2155
epoch: 1000
next table: 1660
cur table: 1643
epoch: 1000
next table: 2152
cur table: 2159
epoch: 1000
next table: 1643
cur table: 1660
epoch: 1000
next table: 2152
cur table: 2152
epoch: 1000
next table: 1642
cur table: 1643
epoch: 1000
next table: 2152
cur table: 2152
epoch: 1000
next table: 1655
cur table: 1642
epoch: 1000
next table: 2159
cur table: 2152
epoch: 1000
next table: 1628
cur table: 1655
epoch: 1000
next table: 2142
cur table: 2159
epoch: 1000
next table: 1609
cur table: 1628
epoch: 1000
next table: 2158
cur table: 2142
epoch: 1000
next table: 1634
cur table: 1609
epoch: 1000
next table: 2161
cur table: 2158
epoch: 1000
next table: 1617
cur table: 1634
epoch: 1000
next table: 2160
cur table: 2161
epoch: 1000
next table: 1647
cur table: 1617
epoch: 1000
next table: 2155
cur table: 2160
epoch: 1000
next table: 1646
cur table: 1647
epoch: 1000
next table: 2159
cur table: 2155
epoch: 1000
next table: 1638
cur table: 1646
epoch: 1000
next table: 2151
cur table: 2159
epoch: 1000
next table: 1654
cur table: 1638
epoch: 1000
next table: 2162
cur table: 2151
epoch: 1000
next table: 1643
cur table: 1654
epoch: 1000
next table: 2161
cur table: 2162
epoch: 1000
next table: 1663
cur table: 1643
epoch: 1000
next table: 2155
cur table: 2161
epoch: 1000
next table: 1660
cur table: 1663
epoch: 1000
next table: 1613
cur table: 1660
epoch: 1000
next table: 2154
cur table: 2155
epoch: 1000
next table: 1662
cur table: 1613
epoch: 1000
next table: 2158
cur table: 2154
epoch: 1000
next table: 1628
cur table: 1662
epoch: 1000
next table: 2156
cur table: 2158
epoch: 1000
next table: 1651
cur table: 1628
epoch: 1000
next table: 2160
cur table: 2156
epoch: 1000
next table: 1658
cur table: 1651
epoch: 1000
next table: 2158
cur table: 2160
epoch: 1000
next table: 1631
cur table: 1658
epoch: 1000
next table: 2156
cur table: 2158
epoch: 1000
next table: 1646
cur table: 1631
epoch: 1000
next table: 2165
cur table: 2156
epoch: 1000
next table: 1631
cur table: 1646
epoch: 1000
next table: 2153
cur table: 2165
epoch: 1000
next table: 1630
cur table: 1631
epoch: 1000
next table: 2155
cur table: 2153
epoch: 1000
next table: 1643
cur table: 1630
epoch: 1000
next table: 2156
cur table: 2155
epoch: 1000
next table: 1652
cur table: 1643
epoch: 1000
next table: 2145
cur table: 2156
epoch: 1000
next table: 1659
cur table: 1652
epoch: 1000
next table: 2135
cur table: 2145
epoch: 1000
next table: 1638
cur table: 1659
epoch: 1000
next table: 2162
cur table: 2135
epoch: 1000
next table: 1637
cur table: 1638
epoch: 1000
next table: 2151
cur table: 2162
epoch: 1000
next table: 1664
cur table: 1637
epoch: 1000
next table: 2144
cur table: 2151
epoch: 1000
next table: 1644
cur table: 1664
epoch: 1000
next table: 2163
cur table: 2144
epoch: 1000
next table: 1628
cur table: 1644
epoch: 1000
next table: 2159
cur table: 2163
epoch: 1000
next table: 1625
cur table: 1628
epoch: 1000
next table: 2161
cur table: 2159
epoch: 1000
next table: 1627
cur table: 1625
epoch: 1000
next table: 2153
cur table: 2161
epoch: 1000
next table: 1622
cur table: 1627
epoch: 1000
next table: 1639
cur table: 1622
epoch: 1000
next table: 2164
cur table: 2153
epoch: 1000
next table: 1652
cur table: 1639
epoch: 1000
next table: 2156
cur table: 2164
epoch: 1000
next table: 1626
cur table: 1652
epoch: 1000
next table: 2157
cur table: 2156
epoch: 1000
next table: 1648
cur table: 1626
epoch: 1000
next table: 2145
cur table: 2157
epoch: 1000
next table: 1633
cur table: 1648
epoch: 1000
next table: 2155
cur table: 2145
epoch: 1000
next table: 1640
cur table: 1633
epoch: 1000
next table: 2160
cur table: 2155
epoch: 1000
next table: 1655
cur table: 1640
epoch: 1000
next table: 2155
cur table: 2160
epoch: 1000
next table: 1633
cur table: 1655
epoch: 1000
next table: 2159
cur table: 2155
epoch: 1000
next table: 1640
cur table: 1633
epoch: 1000
next table: 2158
cur table: 2159
epoch: 1000
next table: 1662
cur table: 1640
epoch: 1000
next table: 2158
cur table: 2158
epoch: 1000
next table: 1610
cur table: 1662
epoch: 1000
next table: 2158
cur table: 2158
epoch: 1000
next table: 1653
cur table: 1610
epoch: 1000
[...]
cur table: 2166
epoch: 1000
next table: 1642
cur table: 1640
epoch: 1000
next table: 2147
cur table: 2166
epoch: 1000
next table: 1633
cur table: 1642
epoch: 1000
next table: 2159
cur table: 2147
epoch: 1000
next table: 1665
cur table: 1633
epoch: 1000
next table: 2182
cur table: 2159
epoch: 1000
next table: 1635
cur table: 1665
epoch: 1000
next table: 2164
cur table: 2182
epoch: 1000
next table: 1666
cur table: 1635
epoch: 1000
next table: 2179
cur table: 2164
epoch: 1000
next table: 1614
cur table: 1666
epoch: 1000
next table: 2171
cur table: 2179
epoch: 1000
next table: 1647
cur table: 1614
epoch: 1000
next table: 1624
cur table: 1647
epoch: 1000
next table: 2156
cur table: 2171
epoch: 1000
next table: 1634
cur table: 1624
epoch: 1000
next table: 2169
cur table: 2156
epoch: 1000
next table: 1635
cur table: 1634
epoch: 1000
next table: 2157
cur table: 2169
epoch: 1000
next table: 1661
cur table: 1635
epoch: 1000
next table: 2156
cur table: 2157
epoch: 1000
next table: 1660
cur table: 1661
epoch: 1000
next table: 2154
cur table: 2156
epoch: 1000
next table: 1670
cur table: 1660
epoch: 1000
next table: 2167
cur table: 2154
epoch: 1000
next table: 1643
cur table: 1670
epoch: 1000
next table: 2163
cur table: 2167
epoch: 1000
next table: 1627
cur table: 1643
epoch: 1000
next table: 2172
cur table: 2163
epoch: 1000
next table: 1616
cur table: 1627
epoch: 1000
next table: 2169
cur table: 2172
epoch: 1000
next table: 1669
cur table: 1616
epoch: 1000
next table: 2155
cur table: 2169
epoch: 1000
next table: 1652
cur table: 1669
epoch: 1000
next table: 2174
cur table: 2155
epoch: 1000
next table: 1683
cur table: 1652
epoch: 1000
next table: 2171
cur table: 2174
epoch: 1000
next table: 1637
cur table: 1683
epoch: 1000
next table: 2149
cur table: 2171
epoch: 1000
next table: 1619
cur table: 1637
epoch: 1000
next table: 2167
cur table: 2149
epoch: 1000
next table: 1660
cur table: 1619
epoch: 1000
next table: 2147
cur table: 2167
epoch: 1000
next table: 1668
cur table: 1660
epoch: 1000
next table: 2166
cur table: 2147
epoch: 1000
next table: 1642
cur table: 1668
epoch: 1000
next table: 2164
cur table: 2166
epoch: 1000
next table: 1661
cur table: 1642
epoch: 1000
next table: 2148
cur table: 2164
epoch: 1000
next table: 1677
cur table: 1661
epoch: 1000
next table: 2177
cur table: 2148
epoch: 1000
next table: 1665
cur table: 1677
epoch: 1000
next table: 1600
cur table: 1665
epoch: 1000
next table: 2170
cur table: 2177
epoch: 1000
next table: 1651
cur table: 1600
epoch: 1000
next table: 2177
cur table: 2170
Heartbeat CPU 0 instructions: 100000003 cycles: 107609059 heartbeat IPC: 0.608376 cumulative IPC: 0.607653 (Simulation time: 0 hr 29 min 42 sec) 
Finished CPU 0 instructions: 50000001 cycles: 82283836 cumulative IPC: 0.607653 (Simulation time: 0 hr 29 min 42 sec) 

ChampSim completed all CPUs

Region of Interest Statistics

CPU 0 cumulative IPC: 0.607653 instructions: 50000001 cycles: 82283836
ITLB TOTAL     ACCESS:    6492329  HIT:    6492329  MISS:          0  HIT %:        100  MISS %:          0   MPKI: 0
ITLB LOAD TRANSLATION ACCESS:    6492329  HIT:    6492329  MISS:          0  HIT %:        100  MISS %:          0   MPKI: 0
ITLB PREFETCH  REQUESTED:          0  ISSUED:          0  USEFUL:          0  USELESS:          0
ITLB USEFUL LOAD PREFETCHES:          0 PREFETCH ISSUED TO LOWER LEVEL:          0  ACCURACY: -nan
ITLB TIMELY PREFETCHES:          0 LATE PREFETCHES: 0 DROPPED PREFETCHES: 0
ITLB PREFETCHES SAME FILL-ORIGIN LEVEL: 0 DIFFERENT FILL-ORIGIN LEVEL: 0
ITLB AVERAGE MISS LATENCY: -nan cycles
ITLB RQ	ACCESS:    6903591	FORWARD:          0	MERGED:     411261	TO_CACHE:    6492330

Revised Interactions: positive negative neutral
ITLB_interactions 0 0 0 -nan -nan -nan
DTLB TOTAL     ACCESS:   22141992  HIT:   21880391  MISS:     261601  HIT %:    98.8185  MISS %:    1.18147   MPKI: 5.23202
DTLB LOAD TRANSLATION ACCESS:   22141992  HIT:   21880391  MISS:     261601  HIT %:    98.8185  MISS %:    1.18147   MPKI: 5.23202
DTLB PREFETCH  REQUESTED:          0  ISSUED:          0  USEFUL:          0  USELESS:          0
DTLB USEFUL LOAD PREFETCHES:          0 PREFETCH ISSUED TO LOWER LEVEL:          0  ACCURACY: -nan
DTLB TIMELY PREFETCHES:          0 LATE PREFETCHES: 0 DROPPED PREFETCHES: 0
DTLB PREFETCHES SAME FILL-ORIGIN LEVEL: 0 DIFFERENT FILL-ORIGIN LEVEL: 0
DTLB AVERAGE MISS LATENCY: 161.841 cycles
DTLB RQ	ACCESS:   24603650	FORWARD:          0	MERGED:    2449888	TO_CACHE:   22153762

Revised Interactions: positive negative neutral
DTLB_interactions 0 0 0 -nan -nan -nan
STLB TOTAL     ACCESS:     261601  HIT:      91825  MISS:     169776  HIT %:    35.1012  MISS %:    64.8988   MPKI: 3.39552
STLB LOAD TRANSLATION ACCESS:     261601  HIT:      91825  MISS:     169776  HIT %:    35.1012  MISS %:    64.8988   MPKI: 3.39552
STLB PREFETCH  REQUESTED:          0  ISSUED:          0  USEFUL:          0  USELESS:          0
STLB USEFUL LOAD PREFETCHES:          0 PREFETCH ISSUED TO LOWER LEVEL:          0  ACCURACY: -nan
STLB TIMELY PREFETCHES:          0 LATE PREFETCHES: 0 DROPPED PREFETCHES: 0
STLB PREFETCHES SAME FILL-ORIGIN LEVEL: 0 DIFFERENT FILL-ORIGIN LEVEL: 0
STLB AVERAGE MISS LATENCY: 217.268 cycles
STLB RQ	ACCESS:     261601	FORWARD:          0	MERGED:          0	TO_CACHE:     261601

Revised Interactions: positive negative neutral
STLB_interactions 0 0 0 -nan -nan -nan
STLB Hit, L1D data hit: 0
STLB Hit, L2C data hit: 0
STLB Hit, LLC data hit: 0
STLB Hit, LLC data miss: 0
STLB STLB hints to L2: 0
L1D TOTAL     ACCESS:   24451457  HIT:   23489456  MISS:     962001  HIT %:    96.0657  MISS %:    3.93433   MPKI: 19.24
L1D LOAD      ACCESS:   21245810  HIT:   20283809  MISS:     962001  HIT %:     95.472  MISS %:    4.52796   MPKI: 19.24
L1D RFO       ACCESS:    3205647  HIT:    3205647  MISS:          0  HIT %:        100  MISS %:          0   MPKI: 0
L1D PREFETCH  REQUESTED:          0  ISSUED:          0  USEFUL:          0  USELESS:          0
L1D USEFUL LOAD PREFETCHES:          0 PREFETCH ISSUED TO LOWER LEVEL:          0  ACCURACY: -nan
L1D TIMELY PREFETCHES:          0 LATE PREFETCHES: 0 DROPPED PREFETCHES: 0
L1D PREFETCHES SAME FILL-ORIGIN LEVEL: 0 DIFFERENT FILL-ORIGIN LEVEL: 0
L1D AVERAGE MISS LATENCY: 90.0199 cycles
L1D RQ	ACCESS:   31953089	FORWARD:          0	MERGED:   10550387	TO_CACHE:   21398002
L1D WQ	ACCESS:    3205648	FORWARD:       4700	MERGED:          0	TO_CACHE:    3205648

Revised Interactions: positive negative neutral
L1D_interactions 0 0 0 -nan -nan -nan
L1D UNIQUE REGIONS ACCESSED: 0
L1D REGIONS CONFLICTS: 0
L1D Cross Page Prefetch Requests: 0
L1D Same Page Prefetch Requests: 0
L1D ROI Sum of L1D PQ occupancy: 0
L1D PREFETCHES PUSHED FROM L2C: 0
L1I TOTAL     ACCESS:    6903589  HIT:    6903589  MISS:          0  HIT %:        100  MISS %:          0   MPKI: 0
L1I LOAD      ACCESS:    6903589  HIT:    6903589  MISS:          0  HIT %:        100  MISS %:          0   MPKI: 0
L1I PREFETCH  REQUESTED:          0  ISSUED:          0  USEFUL:          0  USELESS:          0
L1I USEFUL LOAD PREFETCHES:          0 PREFETCH ISSUED TO LOWER LEVEL:          0  ACCURACY: -nan
L1I TIMELY PREFETCHES:          0 LATE PREFETCHES: 0 DROPPED PREFETCHES: 0
L1I PREFETCHES SAME FILL-ORIGIN LEVEL: 0 DIFFERENT FILL-ORIGIN LEVEL: 0
L1I AVERAGE MISS LATENCY: -nan cycles
L1I RQ	ACCESS:   15640524	FORWARD:          0	MERGED:    8736933	TO_CACHE:    6903591

Revised Interactions: positive negative neutral
L1I_interactions 0 0 0 -nan -nan -nan
BTB TOTAL     ACCESS:     560941  HIT:     560936  MISS:          5  HIT %:    99.9991  MISS %: 0.000891359   MPKI: 0.0001
BTB BRANCH_DIRECT_JUMP	ACCESS:      40061  HIT:      40060  MISS:          1
BTB BRANCH_INDIRECT	ACCESS:          0  HIT:          0  MISS:          0
BTB BRANCH_CONDITIONAL	ACCESS:     520880  HIT:     520876  MISS:          4
BTB BRANCH_DIRECT_CALL	ACCESS:          0  HIT:          0  MISS:          0
BTB BRANCH_INDIRECT_CALL	ACCESS:          0  HIT:          0  MISS:          0
BTB BRANCH_RETURN	ACCESS:          0  HIT:          0  MISS:          0
BTB BRANCH_OTHER ACCESS:          0  HIT:          0  MISS:          0

L2C TOTAL     ACCESS:    1966408  HIT:     916378  MISS:    1050030  HIT %:    46.6016  MISS %:    53.3984   MPKI: 21.0006
L2C LOAD      ACCESS:     962000  HIT:     316192  MISS:     645808  HIT %:    32.8682  MISS %:    67.1318   MPKI: 12.9162
L2C DATA LOAD MPKI: 12.9162
L2C INSTRUCTION LOAD MPKI: 0
L2C PREFETCH  ACCESS:     348845  HIT:      39629  MISS:     309216  HIT %:    11.3601  MISS %:    88.6399   MPKI: 6.18432
L2C DATA PREFETCH MPKI: 6.18432
L2C INSTRUCTION PREFETCH MPKI: 0
L2C WRITEBACK ACCESS:     485740  HIT:     411577  MISS:      74163  HIT %:     84.732  MISS %:     15.268   MPKI: 1.48326
L2C LOAD TRANSLATION ACCESS:     169823  HIT:     148980  MISS:      20843  HIT %:    87.7266  MISS %:    12.2734   MPKI: 0.41686
L2C PREFETCH  REQUESTED:    2567120  ISSUED:    2446252  USEFUL:     304359  USELESS:       4877
L2C USEFUL LOAD PREFETCHES:     304359 PREFETCH ISSUED TO LOWER LEVEL:    2376568  ACCURACY: 12.8067
L2C TIMELY PREFETCHES:     304359 LATE PREFETCHES: 2242 DROPPED PREFETCHES: 0
L2C PREFETCHES SAME FILL-ORIGIN LEVEL: 311458 DIFFERENT FILL-ORIGIN LEVEL: 2065110
L2C AVERAGE MISS LATENCY: 83.4499 cycles
L2C RQ	ACCESS:    1131823	FORWARD:          0	MERGED:          0	TO_CACHE:    1131823
L2C WQ	ACCESS:     485740	FORWARD:          0	MERGED:          0	TO_CACHE:     485740
L2C PQ	ACCESS:    2446252	FORWARD:          0	MERGED:      28987	TO_CACHE:    2417265

Revised Interactions: positive negative neutral
L2C_interactions 305108 3455 2664 98.0339 1.11012 0.855967
L2C Instructions Evicting Data 0
L2C Translations Evicting Data 20494
L2C Data Evicting Data 935869
L2C Instructions Evicting Instructions 0
L2C Translations Evicting Instructions 0
L2C Data Evicting Instructions 0
L2C Instructions Evicting Translations 0
L2C Translations Evicting Translations 349
L2C Data Evicting Translations 19155
L2C Dense regions hint from L2: 0
PSCL5 TOTAL     ACCESS:     169776  HIT:     169776  MISS:          0  HIT %:        100  MISS %:          0   MPKI: 0
PSCL5 LOAD TRANSLATION ACCESS:     169776  HIT:     169776  MISS:          0  HIT %:        100  MISS %:          0   MPKI: 0
PSCL5 PREFETCH  REQUESTED:          0  ISSUED:          0  USEFUL:          0  USELESS:          0
PSCL5 USEFUL LOAD PREFETCHES:          0 PREFETCH ISSUED TO LOWER LEVEL:          0  ACCURACY: -nan
PSCL5 TIMELY PREFETCHES:          0 LATE PREFETCHES: 0 DROPPED PREFETCHES: 0
PSCL5 PREFETCHES SAME FILL-ORIGIN LEVEL: 0 DIFFERENT FILL-ORIGIN LEVEL: 0

Revised Interactions: positive negative neutral
PSCL5_interactions 0 0 0 -nan -nan -nan
PSCL4 TOTAL     ACCESS:     169776  HIT:     169776  MISS:          0  HIT %:        100  MISS %:          0   MPKI: 0
PSCL4 LOAD TRANSLATION ACCESS:     169776  HIT:     169776  MISS:          0  HIT %:        100  MISS %:          0   MPKI: 0
PSCL4 PREFETCH  REQUESTED:          0  ISSUED:          0  USEFUL:          0  USELESS:          0
PSCL4 USEFUL LOAD PREFETCHES:          0 PREFETCH ISSUED TO LOWER LEVEL:          0  ACCURACY: -nan
PSCL4 TIMELY PREFETCHES:          0 LATE PREFETCHES: 0 DROPPED PREFETCHES: 0
PSCL4 PREFETCHES SAME FILL-ORIGIN LEVEL: 0 DIFFERENT FILL-ORIGIN LEVEL: 0

Revised Interactions: positive negative neutral
PSCL4_interactions 0 0 0 -nan -nan -nan
PSCL3 TOTAL     ACCESS:     169776  HIT:     169776  MISS:          0  HIT %:        100  MISS %:          0   MPKI: 0
PSCL3 LOAD TRANSLATION ACCESS:     169776  HIT:     169776  MISS:          0  HIT %:        100  MISS %:          0   MPKI: 0
PSCL3 PREFETCH  REQUESTED:          0  ISSUED:          0  USEFUL:          0  USELESS:          0
PSCL3 USEFUL LOAD PREFETCHES:          0 PREFETCH ISSUED TO LOWER LEVEL:          0  ACCURACY: -nan
PSCL3 TIMELY PREFETCHES:          0 LATE PREFETCHES: 0 DROPPED PREFETCHES: 0
PSCL3 PREFETCHES SAME FILL-ORIGIN LEVEL: 0 DIFFERENT FILL-ORIGIN LEVEL: 0

Revised Interactions: positive negative neutral
PSCL3_interactions 0 0 0 -nan -nan -nan
PSCL2 TOTAL     ACCESS:     169776  HIT:     169481  MISS:        295  HIT %:    99.8262  MISS %:   0.173758   MPKI: 0.0059
PSCL2 LOAD TRANSLATION ACCESS:     169776  HIT:     169481  MISS:        295  HIT %:    99.8262  MISS %:   0.173758   MPKI: 0.0059
PSCL2 PREFETCH  REQUESTED:          0  ISSUED:          0  USEFUL:          0  USELESS:          0
PSCL2 USEFUL LOAD PREFETCHES:          0 PREFETCH ISSUED TO LOWER LEVEL:          0  ACCURACY: -nan
PSCL2 TIMELY PREFETCHES:          0 LATE PREFETCHES: 0 DROPPED PREFETCHES: 0
PSCL2 PREFETCHES SAME FILL-ORIGIN LEVEL: 0 DIFFERENT FILL-ORIGIN LEVEL: 0

Revised Interactions: positive negative neutral
PSCL2_interactions 0 0 0 -nan -nan -nan
LLC TOTAL     ACCESS:    3519819  HIT:    2203690  MISS:    1316129  HIT %:     62.608  MISS %:     37.392   MPKI: 26.3226
LLC LOAD      ACCESS:     643566  HIT:     418191  MISS:     225375  HIT %:    64.9803  MISS %:    35.0197   MPKI: 4.5075
LLC PREFETCH  ACCESS:    2370976  HIT:    1585746  MISS:     785230  HIT %:    66.8816  MISS %:    33.1184   MPKI: 15.7046
LLC WRITEBACK ACCESS:     484434  HIT:     195262  MISS:     289172  HIT %:    40.3072  MISS %:    59.6928   MPKI: 5.78344
LLC LOAD TRANSLATION ACCESS:      20843  HIT:       4491  MISS:      16352  HIT %:    21.5468  MISS %:    78.4532   MPKI: 0.32704
LLC PREFETCH  REQUESTED:          0  ISSUED:          0  USEFUL:     343683  USELESS:     441993
LLC USEFUL LOAD PREFETCHES:     343683 PREFETCH ISSUED TO LOWER LEVEL:     785811  ACCURACY: 43.7361
LLC TIMELY PREFETCHES:     343683 LATE PREFETCHES: 579 DROPPED PREFETCHES: 0
LLC PREFETCHES SAME FILL-ORIGIN LEVEL: 734876 DIFFERENT FILL-ORIGIN LEVEL: 0
LLC AVERAGE MISS LATENCY: 136.685 cycles
LLC RQ	ACCESS:     664409	FORWARD:          0	MERGED:          0	TO_CACHE:     664409
LLC WQ	ACCESS:     484434	FORWARD:          0	MERGED:          0	TO_CACHE:     484434
LLC PQ	ACCESS:    2376568	FORWARD:          0	MERGED:        914	TO_CACHE:    2375654

Revised Interactions: positive negative neutral
LLC_interactions 327816 456030 65160 38.6117 53.7134 7.67486
LLC Dense regions hint to LLC: 0

RAW hits: 57256
Loads Generated: 32010345
Loads sent to L1D: 31953089
Stores Generated: 3205650
Stores sent to L1D: 3205648
Major fault: 0 Minor fault: 257109
Allocated PAGES: 257109
 All Calls: 1924065
 Critical Calls: 1924065
------------------
Depth Distribution
------------------
depth 0: 0
depth 1: 1877265
depth 2: 1175233
depth 3: 587207
depth 4: 398212
depth 5: 368711
depth 6: 337632
depth 7: 241837
depth 8: 152528
depth 9: 45465
depth 10: 1468
depth 11: 88
depth 12: 3
depth 13: 0
depth 14: 0
depth 15: 0
depth 16: 0
depth 17: 0
depth 18: 0
depth 19: 0
depth 20: 0
depth 21: 0
depth 22: 0
depth 23: 0
depth 24: 0
depth 25: 0
depth 26: 0
depth 27: 0
depth 28: 0
depth 29: 0
Total: 5185649
-----------------------------
-----------------------------
	Captured at Filter
-----------------------------
depth 0: 0
depth 1: 8602
depth 2: 4691
depth 3: 2419
depth 4: 1657
depth 5: 1540
depth 6: 1435
depth 7: 1058
depth 8: 695
depth 9: 217
depth 10: 9
depth 11: 0
depth 12: 0
depth 13: 0
depth 14: 0
depth 15: 0
depth 16: 0
depth 17: 0
depth 18: 0
depth 19: 0
depth 20: 0
depth 21: 0
depth 22: 0
depth 23: 0
depth 24: 0
depth 25: 0
depth 26: 0
depth 27: 0
depth 28: 0
depth 29: 0
-----------------------------
-----------------------------
		Lost at Page
-----------------------------
depth 0: 0
depth 1: 444658
depth 2: 617289
depth 3: 487419
depth 4: 218647
depth 5: 65151
depth 6: 39667
depth 7: 30480
depth 8: 22567
depth 9: 7812
depth 10: 292
depth 11: 29
depth 12: 0
depth 13: 0
depth 14: 0
depth 15: 0
depth 16: 0
depth 17: 0
depth 18: 0
depth 19: 0
depth 20: 0
depth 21: 0
depth 22: 0
depth 23: 0
depth 24: 0
depth 25: 0
depth 26: 0
depth 27: 0
depth 28: 0
depth 29: 0
-----------------------------
-----------------------------
	Lost due to PQ Size
-----------------------------
161385
-----------------------------
ST read accesses: 792513
ST write accesses: 169487
PT read accesses: 19647091
PT write accesses: 1034919
FILTER read accesses: 4589890
FILTER write accesses: 1683086
GHR read accesses: 8064464
GHR write accesses: 918795
GHR counter read accesses: 17653236
GHR counter write accesses: 1604144
ST tag read accesses: 456658024
ST tag write accesses: 51630600

DRAM Statistics
 CHANNEL 0
 RQ ROW_BUFFER_HIT:     429625  ROW_BUFFER_MISS:     597333
 DBUS_CONGESTED:        745
 WQ ROW_BUFFER_HIT:      86515  ROW_BUFFER_MISS:     398976  FULL:          0

 AVG_CONGESTED_CYCLE: 5
 All warmup complete: 2
Channel 0 Bank busy for read cycles: 0
Channel 0 Bank busy for write cycles: 0
Channel 0
Rank 0
0banks busy for read cycles: 5676934
0banks busy for write cycles: 45757
1banks busy for read cycles: 16050172
1banks busy for write cycles: 5546585
2banks busy for read cycles: 14785859
2banks busy for write cycles: 5584047
3banks busy for read cycles: 8376633
3banks busy for write cycles: 5332408
4banks busy for read cycles: 4982977
4banks busy for write cycles: 4660927
5banks busy for read cycles: 2241899
5banks busy for write cycles: 3612081
6banks busy for read cycles: 961959
6banks busy for write cycles: 2356442
7banks busy for read cycles: 329658
7banks busy for write cycles: 1207800
8banks busy for read cycles: 139554
8banks busy for write cycles: 392145

CPU 0 Branch Prediction Accuracy: 93.3275% MPKI: 0.80204 Average ROB Occupancy at Mispredict: 343.9
Branch types
NOT_BRANCH: 49398998 98.798%
BRANCH_DIRECT_JUMP: 40061 0.080122%
BRANCH_INDIRECT: 0 0%
BRANCH_CONDITIONAL: 560941 1.12188%
BRANCH_DIRECT_CALL: 0 0%
BRANCH_INDIRECT_CALL: 0 0%
BRANCH_RETURN: 0 0%
BRANCH_OTHER: 0 0%

@sumon_overall_L1D         0         0         0         0         0         0         0
@Sumon_Early_by_class_L1D         0         0         0         0
@Sumon_Late_by_class_L1D         0         0         0         0

@Sumon_Early_by_cycle_L1D         0         0         0         0         0         0         0         0         0         0         0         0
@Sumon_Late_by_cycle_L1D         0         0         0         0         0         0
@Sumon_Early_stream_L1D         0         0         0         0         0         0         0         0         0         0         0         0
@Sumon_Early_CS_L1D         0         0         0         0         0         0         0         0         0         0         0         0
@Sumon_Early_CPLX_L1D         0         0         0         0         0         0         0         0         0         0         0         0
@Sumon_Late_stream_L1D         0         0         0         0         0         0
@Sumon_Late_CS_L1D         0         0         0         0         0         0
@Sumon_Late_CPLX_L1D         0         0         0         0         0         0
@sumon_overall_L2C    304359      2242         0      4877    309216   2446252   2567120
@Sumon_Early_by_class_L2C         0         0         0         0
@Sumon_Late_by_class_L2C         0         0         0         0

@Sumon_Early_by_cycle_L2C      5102      7265     25044     48078     76789    132829        34         0      9212         6         0         0
@Sumon_Late_by_cycle_L2C       358       607       391       271       615         0
@Sumon_Early_stream_L2C         0         0         0         0         0         0         0         0         0         0         0         0
@Sumon_Early_CS_L2C         0         0         0         0         0         0         0         0         0         0         0         0
@Sumon_Early_CPLX_L2C         0         0         0         0         0         0         0         0         0         0         0         0
@Sumon_Late_stream_L2C         0         0         0         0         0         0
@Sumon_Late_CS_L2C         0         0         0         0         0         0
@Sumon_Late_CPLX_L2C         0         0         0         0         0         0
DRAM PAGES: 1048576
Allocated PAGES: 257109
