Initialize SIGNATURE TABLE
ST_SET: 1
ST_WAY: 256
ST_TAG_BIT: 16
ST_TAG_MASK: ffff

Initialize PATTERN TABLE
PT_SET: 512
PT_WAY: 4
SIG_DELTA_BIT: 7
C_SIG_BIT: 4
C_DELTA_BIT: 4

Initialize PREFETCH FILTER
FILTER_SET: 1024

*** ChampSim Multicore Out-of-Order Simulator ***

Warmup Instructions: 50000000
Simulation Instructions: 50000000
Number of CPUs: 1
LLC sets: 2048
LLC ways: 16
Off-chip DRAM Size: 4096 MB Channels: 1 Width: 64-bit Data Rate: 6400 MT/s
CPU 0 runs ../../biswa/SPEC2017Traces/654.roms_s-1613B.champsimtrace.xz
.xz
CPU 0 Bimodal branch predictor
BTB has LRU replacement policy
ITLB has LRU replacement policy
DTLB has LRU replacement policy
STLB has LRU replacement policy
L1I has LRU replacement policy
L1D has LRU replacement policy
ST_WAYS: 256
PT_SETS: 512
Initialize DRRIP state for L2C
Initialize SRRIP state
epoch: 1000
next table: 2144
cur table: 9582
epoch: 1000
next table: 2053
cur table: 2144
epoch: 1000
next table: 2047
cur table: 2053
Heartbeat CPU 0 instructions: 10000001 cycles: 2913169 heartbeat IPC: 3.43269 cumulative IPC: 3.43269 (Simulation time: 0 hr 2 min 30 sec) 
epoch: 1000
next table: 2048
cur table: 2047
epoch: 1000
next table: 2045
cur table: 2048
epoch: 1000
next table: 2047
cur table: 2045
epoch: 1000
next table: 4926
cur table: 5975
epoch: 1000
next table: 2040
cur table: 2047
epoch: 1000
next table: 2049
cur table: 2040
epoch: 1000
next table: 2035
cur table: 2049
epoch: 1000
next table: 2209
cur table: 2035
epoch: 1000
next table: 2184
cur table: 2209
epoch: 1000
next table: 2021
cur table: 2184
epoch: 1000
next table: 2016
cur table: 2021
epoch: 1000
next table: 4835
cur table: 4926
epoch: 1000
next table: 2008
cur table: 2016
Heartbeat CPU 0 instructions: 20000000 cycles: 5826322 heartbeat IPC: 3.43271 cumulative IPC: 3.4327 (Simulation time: 0 hr 4 min 59 sec) 
epoch: 1000
next table: 2011
cur table: 2008
epoch: 1000
next table: 2010
cur table: 2011
epoch: 1000
next table: 2011
cur table: 2010
epoch: 1000
next table: 3734
cur table: 4835
epoch: 1000
next table: 2011
cur table: 2011
epoch: 1000
next table: 2011
cur table: 2011
epoch: 1000
next table: 1855
cur table: 3734
epoch: 1000
next table: 2010
cur table: 2011
epoch: 1000
next table: 1819
cur table: 1855
epoch: 1000
next table: 2009
cur table: 2010
epoch: 1000
next table: 2010
cur table: 2009
epoch: 1000
next table: 1785
cur table: 1819
epoch: 1000
next table: 2011
cur table: 2010
epoch: 1000
next table: 1684
cur table: 1785
epoch: 1000
next table: 2012
cur table: 2011
epoch: 1000
next table: 1690
cur table: 1684
epoch: 1000
next table: 2009
cur table: 2012
epoch: 1000
next table: 1633
cur table: 1690
epoch: 1000
next table: 2017
cur table: 2009
Heartbeat CPU 0 instructions: 30000000 cycles: 8739452 heartbeat IPC: 3.43273 cumulative IPC: 3.43271 (Simulation time: 0 hr 7 min 25 sec) 
epoch: 1000
next table: 2016
cur table: 2017
epoch: 1000
next table: 1674
cur table: 1633
epoch: 1000
next table: 2017
cur table: 2016
epoch: 1000
next table: 1630
cur table: 1674
epoch: 1000
next table: 2017
cur table: 2017
epoch: 1000
next table: 1636
cur table: 1630
epoch: 1000
next table: 2018
cur table: 2017
epoch: 1000
next table: 1657
cur table: 1636
epoch: 1000
next table: 2015
cur table: 2018
epoch: 1000
next table: 1632
cur table: 1657
epoch: 1000
next table: 2017
cur table: 2015
epoch: 1000
next table: 1664
cur table: 1632
epoch: 1000
next table: 2017
cur table: 2017
epoch: 1000
next table: 1668
cur table: 1664
epoch: 1000
next table: 2018
cur table: 2017
epoch: 1000
next table: 2017
cur table: 2018
epoch: 1000
next table: 1676
cur table: 1668
epoch: 1000
next table: 2014
cur table: 2017
epoch: 1000
next table: 1605
cur table: 1676
epoch: 1000
next table: 2018
cur table: 2014
epoch: 1000
next table: 1594
cur table: 1605
Heartbeat CPU 0 instructions: 40000000 cycles: 11652603 heartbeat IPC: 3.43271 cumulative IPC: 3.43271 (Simulation time: 0 hr 9 min 46 sec) 
epoch: 1000
next table: 2014
cur table: 2018
epoch: 1000
next table: 1580
cur table: 1594
epoch: 1000
next table: 2019
cur table: 2014
epoch: 1000
next table: 1556
cur table: 1580
epoch: 1000
next table: 2012
cur table: 2019
epoch: 1000
next table: 1686
cur table: 1556
epoch: 1000
next table: 2015
cur table: 2012
epoch: 1000
next table: 1711
cur table: 1686
epoch: 1000
next table: 2009
cur table: 2015
epoch: 1000
next table: 1717
cur table: 1711
epoch: 1000
next table: 2014
cur table: 2009
epoch: 1000
next table: 1756
cur table: 1717
epoch: 1000
next table: 2008
cur table: 2014
epoch: 1000
next table: 1705
cur table: 1756
epoch: 1000
next table: 2014
cur table: 2008
epoch: 1000
next table: 1710
cur table: 1705
epoch: 1000
next table: 2014
cur table: 2014
epoch: 1000
next table: 2013
cur table: 2014
epoch: 1000
next table: 1686
cur table: 1710
epoch: 1000
next table: 2013
cur table: 2013
epoch: 1000
next table: 1654
cur table: 1686
epoch: 1000
next table: 2014
cur table: 2013
epoch: 1000
next table: 1676
cur table: 1654
epoch: 1000
next table: 2014
cur table: 2014
epoch: 1000
next table: 1644
cur table: 1676
epoch: 1000
next table: 2014
cur table: 2014
epoch: 1000
next table: 1676
cur table: 1644
epoch: 1000
next table: 2013
cur table: 2014
epoch: 1000
next table: 1637
cur table: 1676
epoch: 1000
next table: 2013
cur table: 2013
epoch: 1000
next table: 1655
cur table: 1637
epoch: 1000
next table: 2014
cur table: 2013
epoch: 1000
next table: 1629
cur table: 1655
epoch: 1000
next table: 2014
cur table: 2014
epoch: 1000
next table: 1644
cur table: 1629
epoch: 1000
next table: 2015
cur table: 2014
epoch: 1000
next table: 1634
cur table: 1644
epoch: 1000
next table: 2012
cur table: 2015
epoch: 1000
next table: 1639
cur table: 1634
epoch: 1000
next table: 2013
cur table: 2012
epoch: 1000
next table: 1630
cur table: 1639
epoch: 1000
next table: 2014
cur table: 2013
epoch: 1000
next table: 1643
cur table: 1630
epoch: 1000
next table: 2014
cur table: 2014
epoch: 1000
next table: 1622
cur table: 1643
epoch: 1000
next table: 2015
cur table: 2014
epoch: 1000
next table: 1636
cur table: 1622
epoch: 1000
next table: 2013
cur table: 2015
epoch: 1000
next table: 1633
cur table: 1636
epoch: 1000
next table: 2014
cur table: 2013
epoch: 1000
next table: 1637
cur table: 1633
epoch: 1000
next table: 2015
cur table: 2014
epoch: 1000
next table: 1639
cur table: 1637
epoch: 1000
next table: 2013
cur table: 2015
epoch: 1000
next table: 1626
cur table: 1639
epoch: 1000
next table: 2012
cur table: 2013
epoch: 1000
next table: 1632
cur table: 1626
epoch: 1000
next table: 2014
cur table: 2012
epoch: 1000
next table: 1632
cur table: 1632
epoch: 1000
next table: 2007
cur table: 2014
epoch: 1000
next table: 1670
cur table: 1632
epoch: 1000
next table: 1997
cur table: 2007
epoch: 1000
next table: 1682
cur table: 1670
epoch: 1000
next table: 1999
cur table: 1997
epoch: 1000
next table: 1674
cur table: 1682
epoch: 1000
next table: 2005
cur table: 1999
epoch: 1000
next table: 1662
cur table: 1674
epoch: 1000
next table: 2007
cur table: 2005
epoch: 1000
next table: 1668
cur table: 1662
epoch: 1000
next table: 2007
cur table: 2007
epoch: 1000
next table: 1637
cur table: 1668
epoch: 1000
next table: 2003
cur table: 2007
epoch: 1000
next table: 1636
cur table: 1637
epoch: 1000
next table: 2007
cur table: 2003
epoch: 1000
next table: 1633
cur table: 1636
epoch: 1000
next table: 2002
cur table: 2007
epoch: 1000
next table: 1634
cur table: 1633
epoch: 1000
next table: 2006
cur table: 2002
epoch: 1000
next table: 1644
cur table: 1634
epoch: 1000
next table: 2002
cur table: 2006
epoch: 1000
next table: 1643
cur table: 1644
epoch: 1000
next table: 2008
cur table: 2002
epoch: 1000
next table: 1656
cur table: 1643
epoch: 1000
next table: 2000
cur table: 2008
epoch: 1000
next table: 1656
cur table: 1656
epoch: 1000
next table: 2007
cur table: 2000
epoch: 1000
next table: 1661
cur table: 1656
epoch: 1000
next table: 2002
cur table: 2007
epoch: 1000
next table: 1655
cur table: 1661
epoch: 1000
next table: 2007
cur table: 2002
epoch: 1000
next table: 1688
cur table: 1655
epoch: 1000
next table: 2007
cur table: 2007
epoch: 1000
next table: 1692
cur table: 1688
epoch: 1000
next table: 2005
cur table: 2007
epoch: 1000
next table: 2006
cur table: 2005
epoch: 1000
next table: 1677
cur table: 1692
epoch: 1000
next table: 2003
cur table: 2006
epoch: 1000
next table: 1689
cur table: 1677
epoch: 1000
next table: 2006
cur table: 2003
epoch: 1000
next table: 1648
cur table: 1689
epoch: 1000
next table: 2002
cur table: 2006
epoch: 1000
next table: 1639
cur table: 1648
epoch: 1000
next table: 2006
cur table: 2002
epoch: 1000
next table: 1634
cur table: 1639
epoch: 1000
next table: 2007
cur table: 2006
epoch: 1000
next table: 1640
cur table: 1634
epoch: 1000
next table: 2007
cur table: 2007
epoch: 1000
next table: 1640
cur table: 1640
epoch: 1000
next table: 2007
cur table: 2007
epoch: 1000
next table: 1637
cur table: 1640
epoch: 1000
next table: 2002
cur table: 2007
epoch: 1000
next table: 1644
cur table: 1637
epoch: 1000
next table: 2008
cur table: 2002
epoch: 1000
next table: 1637
cur table: 1644
epoch: 1000
next table: 2006
cur table: 2008
epoch: 1000
next table: 1639
cur table: 1637
epoch: 1000
next table: 2004
cur table: 2006
epoch: 1000
next table: 1643
cur table: 1639
epoch: 1000
next table: 2008
cur table: 2004
epoch: 1000
next table: 1636
cur table: 1643
epoch: 1000
next table: 2003
cur table: 2008
epoch: 1000
next table: 1640
cur table: 1636
epoch: 1000
next table: 2005
cur table: 2003
epoch: 1000
next table: 1634
cur table: 1640
epoch: 1000
next table: 2007
cur table: 2005
epoch: 1000
next table: 1633
cur table: 1634
epoch: 1000
next table: 2004
cur table: 2007
epoch: 1000
next table: 1636
cur table: 1633
epoch: 1000
next table: 2006
cur table: 2004
epoch: 1000
next table: 1632
cur table: 1636
epoch: 1000
next table: 2006
cur table: 2006
epoch: 1000
next table: 1635
cur table: 1632
epoch: 1000
next table: 2005
cur table: 2006
epoch: 1000
next table: 1639
cur table: 1635
epoch: 1000
next table: 2002
cur table: 2005
epoch: 1000
next table: 1619
cur table: 1639
epoch: 1000
next table: 2008
cur table: 2002
epoch: 1000
next table: 1499
cur table: 1619
epoch: 1000
next table: 2008
cur table: 2008
epoch: 1000
next table: 1471
cur table: 1499
epoch: 1000
next table: 2015
cur table: 2008
epoch: 1000
next table: 1477
cur table: 1471
epoch: 1000
next table: 1485
cur table: 1477
epoch: 1000
next table: 2009
cur table: 2015
epoch: 1000
next table: 1482
cur table: 1485
epoch: 1000
next table: 2014
cur table: 2009
epoch: 1000
next table: 1481
cur table: 1482
epoch: 1000
next table: 2012
cur table: 2014
epoch: 1000
next table: 1479
cur table: 1481
epoch: 1000
next table: 2012
cur table: 2012
epoch: 1000
next table: 1477
cur table: 1479
epoch: 1000
next table: 2012
cur table: 2012
epoch: 1000
next table: 1493
cur table: 1477
epoch: 1000
next table: 2013
cur table: 2012
epoch: 1000
next table: 1497
cur table: 1493
epoch: 1000
next table: 2010
cur table: 2013
epoch: 1000
next table: 1489
cur table: 1497
epoch: 1000
next table: 2013
cur table: 2010
epoch: 1000
next table: 1480
cur table: 1489
epoch: 1000
next table: 2013
cur table: 2013
epoch: 1000
next table: 1474
cur table: 1480
epoch: 1000
next table: 2011
cur table: 2013
epoch: 1000
next table: 1480
cur table: 1474
epoch: 1000
next table: 2012
cur table: 2011
epoch: 1000
next table: 1492
cur table: 1480
epoch: 1000
next table: 2010
cur table: 2012
epoch: 1000
next table: 1496
cur table: 1492
epoch: 1000
next table: 1486
cur table: 1496
epoch: 1000
next table: 2016
cur table: 2010
epoch: 1000
next table: 1480
cur table: 1486
epoch: 1000
next table: 2011
cur table: 2016
epoch: 1000
next table: 1485
cur table: 1480
epoch: 1000
next table: 2011
cur table: 2011
epoch: 1000
next table: 1480
cur table: 1485
epoch: 1000
next table: 2014
cur table: 2011
epoch: 1000
next table: 1476
cur table: 1480
epoch: 1000
next table: 2008
cur table: 2014
epoch: 1000
next table: 1482
cur table: 1476
epoch: 1000
next table: 2013
cur table: 2008
epoch: 1000
next table: 1478
cur table: 1482
epoch: 1000
next table: 2013
cur table: 2013
epoch: 1000
next table: 1479
cur table: 1478
epoch: 1000
next table: 2013
cur table: 2013
epoch: 1000
next table: 1486
cur table: 1479
epoch: 1000
next table: 2010
cur table: 2013
epoch: 1000
next table: 1485
cur table: 1486
epoch: 1000
next table: 2016
cur table: 2010
epoch: 1000
next table: 1519
cur table: 1485
epoch: 1000
next table: 2011
cur table: 2016
epoch: 1000
next table: 1497
cur table: 1519
epoch: 1000
next table: 2013
cur table: 2011
epoch: 1000
next table: 1492
cur table: 1497
epoch: 1000
next table: 1476
cur table: 1492
epoch: 1000
next table: 2011
cur table: 2013
epoch: 1000
next table: 1486
cur table: 1476
epoch: 1000
next table: 2014
cur table: 2011
epoch: 1000
next table: 1480
cur table: 1486
epoch: 1000
next table: 2009
cur table: 2014
epoch: 1000
next table: 1488
cur table: 1480
epoch: 1000
next table: 2014
cur table: 2009
epoch: 1000
next table: 1495
cur table: 1488
epoch: 1000
next table: 2009
cur table: 2014
epoch: 1000
next table: 1491
cur table: 1495
epoch: 1000
next table: 2015
cur table: 2009
epoch: 1000
next table: 1482
cur table: 1491
epoch: 1000
next table: 2012
cur table: 2015
epoch: 1000
next table: 1476
cur table: 1482
epoch: 1000
next table: 2009
cur table: 2012
epoch: 1000
next table: 1489
cur table: 1476
epoch: 1000
next table: 2015
cur table: 2009
epoch: 1000
next table: 1485
cur table: 1489
epoch: 1000
next table: 2009
cur table: 2015
epoch: 1000
next table: 1476
cur table: 1485
epoch: 1000
next table: 2015
cur table: 2009
epoch: 1000
next table: 1481
cur table: 1476
epoch: 1000
next table: 2012
cur table: 2015
epoch: 1000
next table: 1477
cur table: 1481
epoch: 1000
next table: 1482
cur table: 1477
epoch: 1000
next table: 2013
cur table: 2012
epoch: 1000
next table: 1480
cur table: 1482
epoch: 1000
next table: 2010
cur table: 2013
epoch: 1000
next table: 1480
cur table: 1480
epoch: 1000
next table: 2013
cur table: 2010
epoch: 1000
next table: 1491
cur table: 1480
epoch: 1000
next table: 2011
cur table: 2013
epoch: 1000
next table: 1495
cur table: 1491
epoch: 1000
next table: 2012
cur table: 2011
epoch: 1000
next table: 1489
cur table: 1495
epoch: 1000
next table: 2011
cur table: 2012
epoch: 1000
next table: 1465
cur table: 1489
epoch: 1000
next table: 2012
cur table: 2011
epoch: 1000
next table: 1481
cur table: 1465
epoch: 1000
next table: 2017
cur table: 2012
epoch: 1000
next table: 1483
cur table: 1481
epoch: 1000
next table: 2009
cur table: 2017
epoch: 1000
next table: 1492
cur table: 1483
epoch: 1000
next table: 2015
cur table: 2009
epoch: 1000
next table: 1490
cur table: 1492
epoch: 1000
next table: 2012
cur table: 2015
epoch: 1000
next table: 1485
cur table: 1490
epoch: 1000
next table: 2012
cur table: 2012
epoch: 1000
next table: 1476
cur table: 1485
epoch: 1000
next table: 1480
cur table: 1476
epoch: 1000
next table: 2011
cur table: 2012
epoch: 1000
next table: 1484
cur table: 1480
epoch: 1000
next table: 2012
cur table: 2011
epoch: 1000
next table: 1474
cur table: 1484
epoch: 1000
next table: 2012
cur table: 2012
epoch: 1000
next table: 1477
cur table: 1474
epoch: 1000
next table: 2013
cur table: 2012
epoch: 1000
next table: 1484
cur table: 1477
epoch: 1000
next table: 2013
cur table: 2013
epoch: 1000
next table: 1483
cur table: 1484
epoch: 1000
next table: 2013
cur table: 2013
epoch: 1000
next table: 1477
cur table: 1483
epoch: 1000
next table: 2011
cur table: 2013
epoch: 1000
next table: 1483
cur table: 1477
epoch: 1000
next table: 2011
cur table: 2011
epoch: 1000
next table: 1489
cur table: 1483
epoch: 1000
next table: 2010
cur table: 2011
epoch: 1000
next table: 1498
cur table: 1489
epoch: 1000
next table: 2012
cur table: 2010
epoch: 1000
next table: 1486
cur table: 1498
epoch: 1000
next table: 2013
cur table: 2012
epoch: 1000
next table: 1475
cur table: 1486
epoch: 1000
next table: 2013
cur table: 2013
epoch: 1000
next table: 1479
cur table: 1475
epoch: 1000
next table: 1486
cur table: 1479
epoch: 1000
next table: 2012
cur table: 2013
epoch: 1000
next table: 1489
cur table: 1486
epoch: 1000
next table: 2014
cur table: 2012
epoch: 1000
next table: 1502
cur table: 1489
epoch: 1000
next table: 2011
cur table: 2014
epoch: 1000
next table: 1474
cur table: 1502
epoch: 1000
next table: 2011
cur table: 2011
epoch: 1000
next table: 1489
cur table: 1474
epoch: 1000
next table: 2013
cur table: 2011
epoch: 1000
next table: 1478
cur table: 1489
epoch: 1000
next table: 2010
cur table: 2013
epoch: 1000
next table: 1485
cur table: 1478
epoch: 1000
next table: 2014
cur table: 2010
epoch: 1000
next table: 1487
cur table: 1485
epoch: 1000
next table: 2012
cur table: 2014
epoch: 1000
next table: 1476
cur table: 1487
epoch: 1000
next table: 2014
cur table: 2012
epoch: 1000
next table: 1474
cur table: 1476
epoch: 1000
next table: 2013
cur table: 2014
epoch: 1000
next table: 1489
cur table: 1474
epoch: 1000
next table: 2011
cur table: 2013
epoch: 1000
next table: 1479
cur table: 1489
epoch: 1000
next table: 2013
cur table: 2011
epoch: 1000
next table: 1482
cur table: 1479
epoch: 1000
next table: 2010
cur table: 2013
epoch: 1000
next table: 1496
cur table: 1482
epoch: 1000
next table: 1492
cur table: 1496
epoch: 1000
next table: 2013
cur table: 2010
epoch: 1000
next table: 1491
cur table: 1492
epoch: 1000
next table: 2013
cur table: 2013
epoch: 1000
next table: 1477
cur table: 1491
epoch: 1000
next table: 2009
cur table: 2013
epoch: 1000
next table: 1488
cur table: 1477
epoch: 1000
next table: 2017
cur table: 2009
epoch: 1000
next table: 1474
cur table: 1488
epoch: 1000
next table: 2011
cur table: 2017
epoch: 1000
next table: 1489
cur table: 1474
epoch: 1000
next table: 2011
cur table: 2011
epoch: 1000
next table: 1508
cur table: 1489
epoch: 1000
next table: 2011
cur table: 2011
epoch: 1000
next table: 1485
cur table: 1508
epoch: 1000
next table: 2013
cur table: 2011
epoch: 1000
next table: 1472
cur table: 1485
epoch: 1000
next table: 2011
cur table: 2013
epoch: 1000
next table: 1488
cur table: 1472
epoch: 1000
next table: 2014
cur table: 2011
epoch: 1000
next table: 1481
cur table: 1488
epoch: 1000
next table: 2011
cur table: 2014
epoch: 1000
next table: 1481
cur table: 1481
epoch: 1000
next table: 2016
cur table: 2011
epoch: 1000
next table: 1482
cur table: 1481
epoch: 1000
next table: 1485
cur table: 1482
epoch: 1000
next table: 2010
cur table: 2016
epoch: 1000
next table: 1477
cur table: 1485
epoch: 1000
next table: 2012
cur table: 2010
epoch: 1000
next table: 1477
cur table: 1477
epoch: 1000
next table: 2013
cur table: 2012
epoch: 1000
next table: 1481
cur table: 1477
epoch: 1000
next table: 2014
cur table: 2013
epoch: 1000
next table: 1483
cur table: 1481
epoch: 1000
next table: 2008
cur table: 2014
epoch: 1000
next table: 1500
cur table: 1483
epoch: 1000
next table: 2014
cur table: 2008
epoch: 1000
next table: 1493
cur table: 1500
epoch: 1000
next table: 2015
cur table: 2014
epoch: 1000
next table: 1481
cur table: 1493
epoch: 1000
next table: 2011
cur table: 2015
epoch: 1000
next table: 1481
cur table: 1481
epoch: 1000
next table: 2013
cur table: 2011
epoch: 1000
next table: 1482
cur table: 1481
epoch: 1000
next table: 2010
cur table: 2013
epoch: 1000
next table: 1482
cur table: 1482
epoch: 1000
next table: 2012
cur table: 2010
epoch: 1000
next table: 1495
cur table: 1482
epoch: 1000
next table: 2011
cur table: 2012
epoch: 1000
next table: 1492
cur table: 1495
epoch: 1000
next table: 2014
cur table: 2011
epoch: 1000
next table: 1475
cur table: 1492
epoch: 1000
next table: 1626
cur table: 1475
epoch: 1000
next table: 2008
cur table: 2014
epoch: 1000
next table: 1540
cur table: 1626
epoch: 1000
next table: 2012
cur table: 2008
epoch: 1000
next table: 1524
cur table: 1540
epoch: 1000
next table: 2015
cur table: 2012
epoch: 1000
next table: 1529
cur table: 1524
epoch: 1000
next table: 2011
cur table: 2015
epoch: 1000
next table: 1541
cur table: 1529
epoch: 1000
next table: 2009
cur table: 2011
epoch: 1000
next table: 1539
cur table: 1541
epoch: 1000
next table: 2013
cur table: 2009
epoch: 1000
next table: 1526
cur table: 1539
epoch: 1000
next table: 2011
cur table: 2013
epoch: 1000
next table: 1526
cur table: 1526
Heartbeat CPU 0 instructions: 50000001 cycles: 15140703 heartbeat IPC: 2.86689 cumulative IPC: 3.30236 (Simulation time: 0 hr 12 min 11 sec) 

Warmup complete CPU 0 instructions: 50000001 cycles: 15140703 (Simulation time: 0 hr 12 min 11 sec) 

epoch: 1000
next table: 1596
cur table: 1565
epoch: 1000
next table: 2013
cur table: 2013
epoch: 1000
next table: 1544
cur table: 1596
epoch: 1000
next table: 2009
cur table: 2013
epoch: 1000
next table: 1544
cur table: 1544
epoch: 1000
next table: 2011
cur table: 2009
epoch: 1000
next table: 1549
cur table: 1544
epoch: 1000
next table: 2010
cur table: 2011
epoch: 1000
next table: 1552
cur table: 1549
epoch: 1000
next table: 2011
cur table: 2010
epoch: 1000
next table: 1561
cur table: 1552
epoch: 1000
next table: 2016
cur table: 2011
epoch: 1000
next table: 1535
cur table: 1561
epoch: 1000
next table: 2016
cur table: 2016
epoch: 1000
next table: 1549
cur table: 1535
epoch: 1000
next table: 2018
cur table: 2016
epoch: 1000
next table: 1531
cur table: 1549
epoch: 1000
next table: 2016
cur table: 2018
epoch: 1000
next table: 1529
cur table: 1531
epoch: 1000
next table: 2017
cur table: 2016
epoch: 1000
next table: 1532
cur table: 1529
Heartbeat CPU 0 instructions: 60000001 cycles: 31831503 heartbeat IPC: 0.599132 cumulative IPC: 0.599132 (Simulation time: 0 hr 14 min 38 sec) 
epoch: 1000
next table: 2016
cur table: 2017
epoch: 1000
next table: 1544
cur table: 1532
epoch: 1000
next table: 2018
cur table: 2016
epoch: 1000
next table: 1532
cur table: 1544
epoch: 1000
next table: 2018
cur table: 2018
epoch: 1000
next table: 1535
cur table: 1532
epoch: 1000
next table: 2015
cur table: 2018
epoch: 1000
next table: 1537
cur table: 1535
epoch: 1000
next table: 2017
cur table: 2015
epoch: 1000
next table: 1538
cur table: 1537
epoch: 1000
next table: 2017
cur table: 2017
epoch: 1000
next table: 1539
cur table: 1538
epoch: 1000
next table: 2017
cur table: 2017
epoch: 1000
next table: 1529
cur table: 1539
epoch: 1000
next table: 2018
cur table: 2017
epoch: 1000
next table: 1531
cur table: 1529
epoch: 1000
next table: 1535
cur table: 1531
epoch: 1000
next table: 2019
cur table: 2018
epoch: 1000
next table: 1537
cur table: 1535
epoch: 1000
next table: 2018
cur table: 2019
epoch: 1000
next table: 1512
cur table: 1537
epoch: 1000
next table: 2010
cur table: 2018
epoch: 1000
next table: 1525
cur table: 1512
epoch: 1000
next table: 2009
cur table: 2010
Heartbeat CPU 0 instructions: 70000003 cycles: 48480155 heartbeat IPC: 0.600649 cumulative IPC: 0.59989 (Simulation time: 0 hr 16 min 58 sec) 
epoch: 1000
next table: 1541
cur table: 1525
epoch: 1000
next table: 2009
cur table: 2009
epoch: 1000
next table: 1540
cur table: 1541
epoch: 1000
next table: 2010
cur table: 2009
epoch: 1000
next table: 1525
cur table: 1540
epoch: 1000
next table: 2012
cur table: 2010
epoch: 1000
next table: 1526
cur table: 1525
epoch: 1000
next table: 2011
cur table: 2012
epoch: 1000
next table: 1531
cur table: 1526
epoch: 1000
next table: 2010
cur table: 2011
epoch: 1000
next table: 1540
cur table: 1531
epoch: 1000
next table: 2011
cur table: 2010
epoch: 1000
next table: 1535
cur table: 1540
epoch: 1000
next table: 2010
cur table: 2011
epoch: 1000
next table: 1528
cur table: 1535
epoch: 1000
next table: 2012
cur table: 2010
epoch: 1000
next table: 1537
cur table: 1528
epoch: 1000
next table: 2012
cur table: 2012
epoch: 1000
next table: 1547
cur table: 1537
epoch: 1000
next table: 2011
cur table: 2012
epoch: 1000
next table: 1551
cur table: 1547
epoch: 1000
next table: 2010
cur table: 2011
epoch: 1000
next table: 1565
cur table: 1551
epoch: 1000
next table: 2012
cur table: 2010
Heartbeat CPU 0 instructions: 80000000 cycles: 65117342 heartbeat IPC: 0.601063 cumulative IPC: 0.60028 (Simulation time: 0 hr 19 min 18 sec) 
epoch: 1000
next table: 1551
cur table: 1565
epoch: 1000
next table: 2017
cur table: 2012
epoch: 1000
next table: 1545
cur table: 1551
epoch: 1000
next table: 2015
cur table: 2017
epoch: 1000
next table: 1535
cur table: 1545
epoch: 1000
next table: 2019
cur table: 2015
epoch: 1000
next table: 1526
cur table: 1535
epoch: 1000
next table: 1534
cur table: 1526
epoch: 1000
next table: 2017
cur table: 2019
epoch: 1000
next table: 1547
cur table: 1534
epoch: 1000
next table: 2016
cur table: 2017
epoch: 1000
next table: 1533
cur table: 1547
epoch: 1000
next table: 2016
cur table: 2016
epoch: 1000
next table: 1531
cur table: 1533
epoch: 1000
next table: 2018
cur table: 2016
epoch: 1000
next table: 1536
cur table: 1531
epoch: 1000
next table: 2018
cur table: 2018
epoch: 1000
next table: 1543
cur table: 1536
epoch: 1000
next table: 2017
cur table: 2018
epoch: 1000
next table: 1535
cur table: 1543
epoch: 1000
next table: 2017
cur table: 2017
epoch: 1000
next table: 1534
cur table: 1535
epoch: 1000
next table: 2016
cur table: 2017
epoch: 1000
next table: 1540
cur table: 1534
Heartbeat CPU 0 instructions: 90000001 cycles: 81746344 heartbeat IPC: 0.601359 cumulative IPC: 0.60055 (Simulation time: 0 hr 21 min 20 sec) 
epoch: 1000
next table: 2017
cur table: 2016
epoch: 1000
next table: 1537
cur table: 1540
epoch: 1000
next table: 2015
cur table: 2017
epoch: 1000
next table: 1554
cur table: 1537
epoch: 1000
next table: 2019
cur table: 2015
epoch: 1000
next table: 1531
cur table: 1554
epoch: 1000
next table: 2012
cur table: 2019
epoch: 1000
next table: 1519
cur table: 1531
epoch: 1000
next table: 2011
cur table: 2012
epoch: 1000
next table: 1518
cur table: 1519
epoch: 1000
next table: 2010
cur table: 2011
epoch: 1000
next table: 1539
cur table: 1518
epoch: 1000
next table: 2011
cur table: 2010
epoch: 1000
next table: 1540
cur table: 1539
epoch: 1000
next table: 2009
cur table: 2011
epoch: 1000
next table: 1531
cur table: 1540
epoch: 1000
next table: 2012
cur table: 2009
epoch: 1000
next table: 1534
cur table: 1531
epoch: 1000
next table: 2010
cur table: 2012
epoch: 1000
next table: 1528
cur table: 1534
epoch: 1000
next table: 1537
cur table: 1528
epoch: 1000
next table: 2011
cur table: 2010
epoch: 1000
next table: 1528
cur table: 1537
epoch: 1000
next table: 2013
cur table: 2011
Heartbeat CPU 0 instructions: 100000000 cycles: 98374937 heartbeat IPC: 0.601374 cumulative IPC: 0.600714 (Simulation time: 0 hr 23 min 11 sec) 
Finished CPU 0 instructions: 50000001 cycles: 83234235 cumulative IPC: 0.600714 (Simulation time: 0 hr 23 min 11 sec) 

ChampSim completed all CPUs

Region of Interest Statistics

CPU 0 cumulative IPC: 0.600714 instructions: 50000001 cycles: 83234235
ITLB TOTAL     ACCESS:    7481273  HIT:    7481265  MISS:          8  HIT %:    99.9999  MISS %: 0.000106934   MPKI: 0.00016
ITLB LOAD TRANSLATION ACCESS:    7481273  HIT:    7481265  MISS:          8  HIT %:    99.9999  MISS %: 0.000106934   MPKI: 0.00016
ITLB PREFETCH  REQUESTED:          0  ISSUED:          0  USEFUL:          0  USELESS:          0
ITLB USEFUL LOAD PREFETCHES:          0 PREFETCH ISSUED TO LOWER LEVEL:          0  ACCURACY: -nan
ITLB TIMELY PREFETCHES:          0 LATE PREFETCHES: 0 DROPPED PREFETCHES: 0
ITLB PREFETCHES SAME FILL-ORIGIN LEVEL: 0 DIFFERENT FILL-ORIGIN LEVEL: 0
ITLB AVERAGE MISS LATENCY: 283.75 cycles
ITLB RQ	ACCESS:    9852669	FORWARD:          0	MERGED:    2371396	TO_CACHE:    7481273

Revised Interactions: positive negative neutral
ITLB_interactions 0 0 0 -nan -nan -nan
DTLB TOTAL     ACCESS:   10107266  HIT:   10106011  MISS:       1255  HIT %:    99.9876  MISS %:  0.0124168   MPKI: 0.0251
DTLB LOAD TRANSLATION ACCESS:   10107266  HIT:   10106011  MISS:       1255  HIT %:    99.9876  MISS %:  0.0124168   MPKI: 0.0251
DTLB PREFETCH  REQUESTED:          0  ISSUED:          0  USEFUL:          0  USELESS:          0
DTLB USEFUL LOAD PREFETCHES:          0 PREFETCH ISSUED TO LOWER LEVEL:          0  ACCURACY: -nan
DTLB TIMELY PREFETCHES:          0 LATE PREFETCHES: 0 DROPPED PREFETCHES: 0
DTLB PREFETCHES SAME FILL-ORIGIN LEVEL: 0 DIFFERENT FILL-ORIGIN LEVEL: 0
DTLB AVERAGE MISS LATENCY: 77.4008 cycles
DTLB RQ	ACCESS:   12200994	FORWARD:          0	MERGED:    2093674	TO_CACHE:   10107320

Revised Interactions: positive negative neutral
DTLB_interactions 0 0 0 -nan -nan -nan
STLB TOTAL     ACCESS:       1263  HIT:          0  MISS:       1263  HIT %:          0  MISS %:        100   MPKI: 0.02526
STLB LOAD TRANSLATION ACCESS:       1263  HIT:          0  MISS:       1263  HIT %:          0  MISS %:        100   MPKI: 0.02526
STLB PREFETCH  REQUESTED:          0  ISSUED:          0  USEFUL:          0  USELESS:          0
STLB USEFUL LOAD PREFETCHES:          0 PREFETCH ISSUED TO LOWER LEVEL:          0  ACCURACY: -nan
STLB TIMELY PREFETCHES:          0 LATE PREFETCHES: 0 DROPPED PREFETCHES: 0
STLB PREFETCHES SAME FILL-ORIGIN LEVEL: 0 DIFFERENT FILL-ORIGIN LEVEL: 0
STLB AVERAGE MISS LATENCY: 69.7078 cycles
STLB RQ	ACCESS:       1263	FORWARD:          0	MERGED:          0	TO_CACHE:       1263

Revised Interactions: positive negative neutral
STLB_interactions 0 0 0 -nan -nan -nan
STLB Hit, L1D data hit: 0
STLB Hit, L2C data hit: 0
STLB Hit, LLC data hit: 0
STLB Hit, LLC data miss: 0
STLB STLB hints to L2: 0
L1D TOTAL     ACCESS:   12193288  HIT:   12135322  MISS:      57966  HIT %:    99.5246  MISS %:   0.475393   MPKI: 1.15932
L1D LOAD      ACCESS:    7268132  HIT:    7233263  MISS:      34869  HIT %:    99.5202  MISS %:   0.479752   MPKI: 0.69738
L1D RFO       ACCESS:    4925156  HIT:    4902059  MISS:      23097  HIT %:     99.531  MISS %:    0.46896   MPKI: 0.46194
L1D PREFETCH  REQUESTED:          0  ISSUED:          0  USEFUL:          0  USELESS:          0
L1D USEFUL LOAD PREFETCHES:          0 PREFETCH ISSUED TO LOWER LEVEL:          0  ACCURACY: -nan
L1D TIMELY PREFETCHES:          0 LATE PREFETCHES: 0 DROPPED PREFETCHES: 0
L1D PREFETCHES SAME FILL-ORIGIN LEVEL: 0 DIFFERENT FILL-ORIGIN LEVEL: 0
L1D AVERAGE MISS LATENCY: 87.9885 cycles
L1D RQ	ACCESS:    9862245	FORWARD:          0	MERGED:    2579770	TO_CACHE:    7275763
L1D WQ	ACCESS:    5290946	FORWARD:       6712	MERGED:     365715	TO_CACHE:    4925231

Revised Interactions: positive negative neutral
L1D_interactions 0 0 0 -nan -nan -nan
L1D UNIQUE REGIONS ACCESSED: 0
L1D REGIONS CONFLICTS: 0
L1D Cross Page Prefetch Requests: 0
L1D Same Page Prefetch Requests: 0
L1D ROI Sum of L1D PQ occupancy: 0
L1D PREFETCHES PUSHED FROM L2C: 0
L1I TOTAL     ACCESS:    9852646  HIT:    9852540  MISS:        106  HIT %:    99.9989  MISS %: 0.00107585   MPKI: 0.00212
L1I LOAD      ACCESS:    9852646  HIT:    9852540  MISS:        106  HIT %:    99.9989  MISS %: 0.00107585   MPKI: 0.00212
L1I PREFETCH  REQUESTED:          0  ISSUED:          0  USEFUL:          0  USELESS:          0
L1I USEFUL LOAD PREFETCHES:          0 PREFETCH ISSUED TO LOWER LEVEL:          0  ACCURACY: -nan
L1I TIMELY PREFETCHES:          0 LATE PREFETCHES: 0 DROPPED PREFETCHES: 0
L1I PREFETCHES SAME FILL-ORIGIN LEVEL: 0 DIFFERENT FILL-ORIGIN LEVEL: 0
L1I AVERAGE MISS LATENCY: 168.868 cycles
L1I RQ	ACCESS:   14414472	FORWARD:          0	MERGED:    4561803	TO_CACHE:    9852669

Revised Interactions: positive negative neutral
L1I_interactions 0 0 0 -nan -nan -nan
BTB TOTAL     ACCESS:    3280393  HIT:    2915465  MISS:     364928  HIT %:    88.8755  MISS %:    11.1245   MPKI: 7.29856
BTB BRANCH_DIRECT_JUMP	ACCESS:     365125  HIT:     365095  MISS:         30
BTB BRANCH_INDIRECT	ACCESS:         16  HIT:         15  MISS:          1
BTB BRANCH_CONDITIONAL	ACCESS:    1456318  HIT:    1456228  MISS:         90
BTB BRANCH_DIRECT_CALL	ACCESS:     729466  HIT:     729429  MISS:         37
BTB BRANCH_INDIRECT_CALL	ACCESS:          0  HIT:          0  MISS:          0
BTB BRANCH_RETURN	ACCESS:     729468  HIT:     364698  MISS:     364770
BTB BRANCH_OTHER ACCESS:          0  HIT:          0  MISS:          0

L2C TOTAL     ACCESS:     107756  HIT:      49125  MISS:      58631  HIT %:    45.5891  MISS %:    54.4109   MPKI: 1.17262
L2C LOAD      ACCESS:      34975  HIT:      25063  MISS:       9912  HIT %:    71.6598  MISS %:    28.3402   MPKI: 0.19824
L2C DATA LOAD MPKI: 0.19612
L2C INSTRUCTION LOAD MPKI: 0.00212
L2C RFO       ACCESS:      23097  HIT:          0  MISS:      23097  HIT %:          0  MISS %:        100   MPKI: 0.46194
L2C PREFETCH  ACCESS:      25326  HIT:          0  MISS:      25326  HIT %:          0  MISS %:        100   MPKI: 0.50652
L2C DATA PREFETCH MPKI: 0.50652
L2C INSTRUCTION PREFETCH MPKI: 0
L2C WRITEBACK ACCESS:      23095  HIT:      22987  MISS:        108  HIT %:    99.5324  MISS %:   0.467634   MPKI: 0.00216
L2C LOAD TRANSLATION ACCESS:       1263  HIT:       1075  MISS:        188  HIT %:    85.1148  MISS %:    14.8852   MPKI: 0.00376
L2C PREFETCH  REQUESTED:     313563  ISSUED:     313563  USEFUL:      25063  USELESS:        261
L2C USEFUL LOAD PREFETCHES:      25063 PREFETCH ISSUED TO LOWER LEVEL:     313391  ACCURACY: 7.99736
L2C TIMELY PREFETCHES:      25063 LATE PREFETCHES: 9 DROPPED PREFETCHES: 0
L2C PREFETCHES SAME FILL-ORIGIN LEVEL: 25335 DIFFERENT FILL-ORIGIN LEVEL: 288056
L2C AVERAGE MISS LATENCY: 87.5407 cycles
L2C RQ	ACCESS:      59335	FORWARD:          0	MERGED:          0	TO_CACHE:      59335
L2C WQ	ACCESS:      23095	FORWARD:          0	MERGED:          0	TO_CACHE:      23095
L2C PQ	ACCESS:     313563	FORWARD:          0	MERGED:        156	TO_CACHE:     313407

Revised Interactions: positive negative neutral
L2C_interactions 24409 255 92 98.5983 1.03005 0.371627
L2C Instructions Evicting Data 102
L2C Translations Evicting Data 188
L2C Data Evicting Data 57903
L2C Instructions Evicting Instructions 3
L2C Translations Evicting Instructions 0
L2C Data Evicting Instructions 111
L2C Instructions Evicting Translations 1
L2C Translations Evicting Translations 0
L2C Data Evicting Translations 215
L2C Dense regions hint from L2: 0
PSCL5 TOTAL     ACCESS:       1263  HIT:       1263  MISS:          0  HIT %:        100  MISS %:          0   MPKI: 0
PSCL5 LOAD TRANSLATION ACCESS:       1263  HIT:       1263  MISS:          0  HIT %:        100  MISS %:          0   MPKI: 0
PSCL5 PREFETCH  REQUESTED:          0  ISSUED:          0  USEFUL:          0  USELESS:          0
PSCL5 USEFUL LOAD PREFETCHES:          0 PREFETCH ISSUED TO LOWER LEVEL:          0  ACCURACY: -nan
PSCL5 TIMELY PREFETCHES:          0 LATE PREFETCHES: 0 DROPPED PREFETCHES: 0
PSCL5 PREFETCHES SAME FILL-ORIGIN LEVEL: 0 DIFFERENT FILL-ORIGIN LEVEL: 0

Revised Interactions: positive negative neutral
PSCL5_interactions 0 0 0 -nan -nan -nan
PSCL4 TOTAL     ACCESS:       1263  HIT:       1263  MISS:          0  HIT %:        100  MISS %:          0   MPKI: 0
PSCL4 LOAD TRANSLATION ACCESS:       1263  HIT:       1263  MISS:          0  HIT %:        100  MISS %:          0   MPKI: 0
PSCL4 PREFETCH  REQUESTED:          0  ISSUED:          0  USEFUL:          0  USELESS:          0
PSCL4 USEFUL LOAD PREFETCHES:          0 PREFETCH ISSUED TO LOWER LEVEL:          0  ACCURACY: -nan
PSCL4 TIMELY PREFETCHES:          0 LATE PREFETCHES: 0 DROPPED PREFETCHES: 0
PSCL4 PREFETCHES SAME FILL-ORIGIN LEVEL: 0 DIFFERENT FILL-ORIGIN LEVEL: 0

Revised Interactions: positive negative neutral
PSCL4_interactions 0 0 0 -nan -nan -nan
PSCL3 TOTAL     ACCESS:       1263  HIT:       1263  MISS:          0  HIT %:        100  MISS %:          0   MPKI: 0
PSCL3 LOAD TRANSLATION ACCESS:       1263  HIT:       1263  MISS:          0  HIT %:        100  MISS %:          0   MPKI: 0
PSCL3 PREFETCH  REQUESTED:          0  ISSUED:          0  USEFUL:          0  USELESS:          0
PSCL3 USEFUL LOAD PREFETCHES:          0 PREFETCH ISSUED TO LOWER LEVEL:          0  ACCURACY: -nan
PSCL3 TIMELY PREFETCHES:          0 LATE PREFETCHES: 0 DROPPED PREFETCHES: 0
PSCL3 PREFETCHES SAME FILL-ORIGIN LEVEL: 0 DIFFERENT FILL-ORIGIN LEVEL: 0

Revised Interactions: positive negative neutral
PSCL3_interactions 0 0 0 -nan -nan -nan
PSCL2 TOTAL     ACCESS:       1263  HIT:       1263  MISS:          0  HIT %:        100  MISS %:          0   MPKI: 0
PSCL2 LOAD TRANSLATION ACCESS:       1263  HIT:       1263  MISS:          0  HIT %:        100  MISS %:          0   MPKI: 0
PSCL2 PREFETCH  REQUESTED:          0  ISSUED:          0  USEFUL:          0  USELESS:          0
PSCL2 USEFUL LOAD PREFETCHES:          0 PREFETCH ISSUED TO LOWER LEVEL:          0  ACCURACY: -nan
PSCL2 TIMELY PREFETCHES:          0 LATE PREFETCHES: 0 DROPPED PREFETCHES: 0
PSCL2 PREFETCHES SAME FILL-ORIGIN LEVEL: 0 DIFFERENT FILL-ORIGIN LEVEL: 0

Revised Interactions: positive negative neutral
PSCL2_interactions 0 0 0 -nan -nan -nan
LLC TOTAL     ACCESS:     369538  HIT:     296368  MISS:      73170  HIT %:    80.1996  MISS %:    19.8004   MPKI: 1.4634
LLC LOAD      ACCESS:       9903  HIT:       8424  MISS:       1479  HIT %:    85.0651  MISS %:    14.9349   MPKI: 0.02958
LLC RFO       ACCESS:      23097  HIT:         30  MISS:      23067  HIT %:   0.129887  MISS %:    99.8701   MPKI: 0.46134
LLC PREFETCH  ACCESS:     313310  HIT:     276380  MISS:      36930  HIT %:     88.213  MISS %:     11.787   MPKI: 0.7386
LLC WRITEBACK ACCESS:      23040  HIT:      11534  MISS:      11506  HIT %:    50.0608  MISS %:    49.9392   MPKI: 0.23012
LLC LOAD TRANSLATION ACCESS:        188  HIT:          0  MISS:        188  HIT %:          0  MISS %:        100   MPKI: 0.00376
LLC PREFETCH  REQUESTED:          0  ISSUED:          0  USEFUL:       8374  USELESS:      34717
LLC USEFUL LOAD PREFETCHES:       8374 PREFETCH ISSUED TO LOWER LEVEL:      36932  ACCURACY: 22.6741
LLC TIMELY PREFETCHES:       8374 LATE PREFETCHES: 2 DROPPED PREFETCHES: 0
LLC PREFETCHES SAME FILL-ORIGIN LEVEL: 36282 DIFFERENT FILL-ORIGIN LEVEL: 0
LLC AVERAGE MISS LATENCY: 112.034 cycles
LLC RQ	ACCESS:      33188	FORWARD:          0	MERGED:          0	TO_CACHE:      33188
LLC WQ	ACCESS:      23040	FORWARD:          0	MERGED:          0	TO_CACHE:      23040
LLC PQ	ACCESS:     313391	FORWARD:          0	MERGED:          0	TO_CACHE:     313391

Revised Interactions: positive negative neutral
LLC_interactions 8140 27774 11367 17.2162 58.7424 24.0414
LLC Dense regions hint to LLC: 0

RAW hits: 1452982
Loads Generated: 11315228
Loads sent to L1D: 9862245
Stores Generated: 5290943
Stores sent to L1D: 5290946
Major fault: 0 Minor fault: 4460
Allocated PAGES: 4460
 All Calls: 168011
 Critical Calls: 168011
------------------
Depth Distribution
------------------
depth 0: 0
depth 1: 162940
depth 2: 160339
depth 3: 157752
depth 4: 155139
depth 5: 152492
depth 6: 149608
depth 7: 146096
depth 8: 130848
depth 9: 109936
depth 10: 84109
depth 11: 50698
depth 12: 27973
depth 13: 10330
depth 14: 1320
depth 15: 1287
depth 16: 0
depth 17: 0
depth 18: 0
depth 19: 0
depth 20: 0
depth 21: 0
depth 22: 0
depth 23: 0
depth 24: 0
depth 25: 0
depth 26: 0
depth 27: 0
depth 28: 0
depth 29: 0
Total: 1500867
-----------------------------
-----------------------------
	Captured at Filter
-----------------------------
depth 0: 0
depth 1: 789
depth 2: 772
depth 3: 758
depth 4: 757
depth 5: 739
depth 6: 720
depth 7: 708
depth 8: 631
depth 9: 550
depth 10: 418
depth 11: 254
depth 12: 138
depth 13: 50
depth 14: 3
depth 15: 8
depth 16: 0
depth 17: 0
depth 18: 0
depth 19: 0
depth 20: 0
depth 21: 0
depth 22: 0
depth 23: 0
depth 24: 0
depth 25: 0
depth 26: 0
depth 27: 0
depth 28: 0
depth 29: 0
-----------------------------
-----------------------------
		Lost at Page
-----------------------------
depth 0: 0
depth 1: 2590
depth 2: 5180
depth 3: 7771
depth 4: 10362
depth 5: 12945
depth 6: 15529
depth 7: 18113
depth 8: 18669
depth 9: 18449
depth 10: 16285
depth 11: 11379
depth 12: 6683
depth 13: 2666
depth 14: 367
depth 15: 394
depth 16: 0
depth 17: 0
depth 18: 0
depth 19: 0
depth 20: 0
depth 21: 0
depth 22: 0
depth 23: 0
depth 24: 0
depth 25: 0
depth 26: 0
depth 27: 0
depth 28: 0
depth 29: 0
-----------------------------
-----------------------------
	Lost due to PQ Size
-----------------------------
15312
-----------------------------
ST read accesses: 33976
ST write accesses: 893
PT read accesses: 1896778
PT write accesses: 50485
FILTER read accesses: 408540
FILTER write accesses: 109087
GHR read accesses: 128158
GHR write accesses: 29905
GHR counter read accesses: 1587530
GHR counter write accesses: 85536
ST tag read accesses: 14187348
ST tag write accesses: 263777

DRAM Statistics
 CHANNEL 0
 RQ ROW_BUFFER_HIT:      25648  ROW_BUFFER_MISS:      36016
 DBUS_CONGESTED:          6
 WQ ROW_BUFFER_HIT:       2650  ROW_BUFFER_MISS:      12852  FULL:          0

 AVG_CONGESTED_CYCLE: 4
 All warmup complete: 2
Channel 0 Bank busy for read cycles: 0
Channel 0 Bank busy for write cycles: 0
Channel 0
Rank 0
0banks busy for read cycles: 76436903
0banks busy for write cycles: 10869
1banks busy for read cycles: 3808644
1banks busy for write cycles: 1530729
2banks busy for read cycles: 981236
2banks busy for write cycles: 200126
3banks busy for read cycles: 21348
3banks busy for write cycles: 61157
4banks busy for read cycles: 16206
4banks busy for write cycles: 22492
5banks busy for read cycles: 11002
5banks busy for write cycles: 15483
6banks busy for read cycles: 8875
6banks busy for write cycles: 9516
7banks busy for read cycles: 16349
7banks busy for write cycles: 5524
8banks busy for read cycles: 70268
8banks busy for write cycles: 7509

CPU 0 Branch Prediction Accuracy: 99.963% MPKI: 0.0378 Average ROB Occupancy at Mispredict: 13.6656
Branch types
NOT_BRANCH: 44889285 89.7786%
BRANCH_DIRECT_JUMP: 365125 0.73025%
BRANCH_INDIRECT: 16 3.2e-05%
BRANCH_CONDITIONAL: 3286278 6.57256%
BRANCH_DIRECT_CALL: 729466 1.45893%
BRANCH_INDIRECT_CALL: 0 0%
BRANCH_RETURN: 729468 1.45894%
BRANCH_OTHER: 0 0%

@sumon_overall_L1D         0         0         0         0         0         0         0
@Sumon_Early_by_class_L1D         0         0         0         0
@Sumon_Late_by_class_L1D         0         0         0         0

@Sumon_Early_by_cycle_L1D         0         0         0         0         0         0         0         0         0         0         0         0
@Sumon_Late_by_cycle_L1D         0         0         0         0         0         0
@Sumon_Early_stream_L1D         0         0         0         0         0         0         0         0         0         0         0         0
@Sumon_Early_CS_L1D         0         0         0         0         0         0         0         0         0         0         0         0
@Sumon_Early_CPLX_L1D         0         0         0         0         0         0         0         0         0         0         0         0
@Sumon_Late_stream_L1D         0         0         0         0         0         0
@Sumon_Late_CS_L1D         0         0         0         0         0         0
@Sumon_Late_CPLX_L1D         0         0         0         0         0         0
@sumon_overall_L2C     25063         9         0       261     25326    313563    313563
@Sumon_Early_by_class_L2C         0         0         0         0
@Sumon_Late_by_class_L2C         0         0         0         0

@Sumon_Early_by_cycle_L2C       227      7267       635         0         0       127     16545         0       260         1         1         0
@Sumon_Late_by_cycle_L2C         1         2         3         0         3         0
@Sumon_Early_stream_L2C         0         0         0         0         0         0         0         0         0         0         0         0
@Sumon_Early_CS_L2C         0         0         0         0         0         0         0         0         0         0         0         0
@Sumon_Early_CPLX_L2C         0         0         0         0         0         0         0         0         0         0         0         0
@Sumon_Late_stream_L2C         0         0         0         0         0         0
@Sumon_Late_CS_L2C         0         0         0         0         0         0
@Sumon_Late_CPLX_L2C         0         0         0         0         0         0
DRAM PAGES: 1048576
Allocated PAGES: 4460
