Initialize SIGNATURE TABLE
ST_SET: 1
ST_WAY: 256
ST_TAG_BIT: 16
ST_TAG_MASK: ffff

Initialize PATTERN TABLE
PT_SET: 512
PT_WAY: 4
SIG_DELTA_BIT: 7
C_SIG_BIT: 4
C_DELTA_BIT: 4

Initialize PREFETCH FILTER
FILTER_SET: 1024

*** ChampSim Multicore Out-of-Order Simulator ***

Warmup Instructions: 50000000
Simulation Instructions: 50000000
Number of CPUs: 1
LLC sets: 2048
LLC ways: 16
Off-chip DRAM Size: 4096 MB Channels: 1 Width: 64-bit Data Rate: 6400 MT/s
CPU 0 runs ../../biswa/SPEC2017Traces/654.roms_s-294B.champsimtrace.xz
.xz
CPU 0 Bimodal branch predictor
BTB has LRU replacement policy
ITLB has LRU replacement policy
DTLB has LRU replacement policy
STLB has LRU replacement policy
L1I has LRU replacement policy
L1D has LRU replacement policy
ST_WAYS: 256
PT_SETS: 512
Initialize DRRIP state for L2C
Initialize SRRIP state
epoch: 1000
next table: 2345
cur table: 3032
epoch: 1000
next table: 2432
cur table: 9452
epoch: 1000
next table: 2232
cur table: 2432
epoch: 1000
next table: 2057
cur table: 2232
epoch: 1000
next table: 2263
cur table: 2345
epoch: 1000
next table: 2035
cur table: 2057
epoch: 1000
next table: 2047
cur table: 2035
epoch: 1000
next table: 2015
cur table: 2047
epoch: 1000
next table: 2009
cur table: 2015
epoch: 1000
next table: 2459
cur table: 2263
epoch: 1000
next table: 2014
cur table: 2009
epoch: 1000
next table: 2032
cur table: 2014
epoch: 1000
next table: 2018
cur table: 2032
epoch: 1000
next table: 2018
cur table: 2018
epoch: 1000
next table: 2350
cur table: 2459
epoch: 1000
next table: 2018
cur table: 2018
epoch: 1000
next table: 2013
cur table: 2018
epoch: 1000
next table: 2007
cur table: 2013
epoch: 1000
next table: 2012
cur table: 2007
epoch: 1000
next table: 2266
cur table: 2350
epoch: 1000
next table: 2022
cur table: 2012
epoch: 1000
next table: 2018
cur table: 2022
epoch: 1000
next table: 2003
cur table: 2018
epoch: 1000
next table: 2263
cur table: 2266
epoch: 1000
next table: 2017
cur table: 2003
epoch: 1000
next table: 2015
cur table: 2017
epoch: 1000
next table: 2050
cur table: 2015
epoch: 1000
next table: 2012
cur table: 2050
epoch: 1000
next table: 2231
cur table: 2263
epoch: 1000
next table: 2019
cur table: 2012
epoch: 1000
next table: 2011
cur table: 2019
epoch: 1000
next table: 2018
cur table: 2011
epoch: 1000
next table: 2183
cur table: 2231
epoch: 1000
next table: 2023
cur table: 2018
epoch: 1000
next table: 2013
cur table: 2023
epoch: 1000
next table: 2009
cur table: 2013
epoch: 1000
next table: 1951
cur table: 2183
epoch: 1000
next table: 2011
cur table: 2009
epoch: 1000
next table: 2014
cur table: 2011
epoch: 1000
next table: 1782
cur table: 1951
epoch: 1000
next table: 2006
cur table: 2014
epoch: 1000
next table: 2012
cur table: 2006
epoch: 1000
next table: 1734
cur table: 1782
epoch: 1000
next table: 2022
cur table: 2012
epoch: 1000
next table: 2022
cur table: 2022
epoch: 1000
next table: 1613
cur table: 1734
epoch: 1000
next table: 2008
cur table: 2022
epoch: 1000
next table: 2009
cur table: 2008
epoch: 1000
next table: 1533
cur table: 1613
epoch: 1000
next table: 2029
cur table: 2009
epoch: 1000
next table: 1526
cur table: 1533
epoch: 1000
next table: 2011
cur table: 2029
epoch: 1000
next table: 2013
cur table: 2011
epoch: 1000
next table: 1496
cur table: 1526
epoch: 1000
next table: 2015
cur table: 2013
epoch: 1000
next table: 1575
cur table: 1496
epoch: 1000
next table: 1996
cur table: 2015
epoch: 1000
next table: 1476
cur table: 1575
epoch: 1000
next table: 2011
cur table: 1996
epoch: 1000
next table: 2030
cur table: 2011
epoch: 1000
next table: 1453
cur table: 1476
epoch: 1000
next table: 2009
cur table: 2030
epoch: 1000
next table: 1422
cur table: 1453
epoch: 1000
next table: 2027
cur table: 2009
epoch: 1000
next table: 1422
cur table: 1422
epoch: 1000
next table: 2003
cur table: 2027
epoch: 1000
next table: 1434
cur table: 1422
epoch: 1000
next table: 2025
cur table: 2003
epoch: 1000
next table: 1405
cur table: 1434
epoch: 1000
next table: 2023
cur table: 2025
epoch: 1000
next table: 2028
cur table: 2023
epoch: 1000
next table: 1405
cur table: 1405
epoch: 1000
next table: 2013
cur table: 2028
epoch: 1000
next table: 1375
cur table: 1405
epoch: 1000
next table: 2012
cur table: 2013
epoch: 1000
next table: 1363
cur table: 1375
epoch: 1000
next table: 2008
cur table: 2012
epoch: 1000
next table: 1383
cur table: 1363
epoch: 1000
next table: 2011
cur table: 2008
epoch: 1000
next table: 1386
cur table: 1383
epoch: 1000
next table: 2020
cur table: 2011
epoch: 1000
next table: 1383
cur table: 1386
epoch: 1000
next table: 2009
cur table: 2020
epoch: 1000
next table: 1358
cur table: 1383
epoch: 1000
next table: 2003
cur table: 2009
epoch: 1000
next table: 1477
cur table: 1358
epoch: 1000
next table: 2006
cur table: 2003
epoch: 1000
next table: 1374
cur table: 1477
epoch: 1000
next table: 2005
cur table: 2006
epoch: 1000
next table: 1379
cur table: 1374
epoch: 1000
next table: 2025
cur table: 2005
epoch: 1000
next table: 2019
cur table: 2025
epoch: 1000
next table: 1375
cur table: 1379
epoch: 1000
next table: 2016
cur table: 2019
epoch: 1000
next table: 1369
cur table: 1375
epoch: 1000
next table: 2006
cur table: 2016
epoch: 1000
next table: 1371
cur table: 1369
epoch: 1000
next table: 2010
cur table: 2006
epoch: 1000
next table: 1360
cur table: 1371
epoch: 1000
next table: 2013
cur table: 2010
epoch: 1000
next table: 1363
cur table: 1360
epoch: 1000
next table: 2020
cur table: 2013
epoch: 1000
next table: 1385
cur table: 1363
epoch: 1000
next table: 2024
cur table: 2020
epoch: 1000
next table: 1373
cur table: 1385
epoch: 1000
next table: 2008
cur table: 2024
epoch: 1000
next table: 1376
cur table: 1373
epoch: 1000
next table: 2011
cur table: 2008
epoch: 1000
next table: 1374
cur table: 1376
epoch: 1000
next table: 2015
cur table: 2011
epoch: 1000
next table: 1367
cur table: 1374
epoch: 1000
next table: 2016
cur table: 2015
epoch: 1000
next table: 1377
cur table: 1367
epoch: 1000
next table: 2018
cur table: 2016
epoch: 1000
next table: 1382
cur table: 1377
epoch: 1000
next table: 1999
cur table: 2018
epoch: 1000
next table: 1449
cur table: 1382
epoch: 1000
next table: 2004
cur table: 1999
epoch: 1000
next table: 1375
cur table: 1449
epoch: 1000
next table: 2017
cur table: 2004
epoch: 1000
next table: 2016
cur table: 2017
epoch: 1000
next table: 1378
cur table: 1375
epoch: 1000
next table: 2008
cur table: 2016
epoch: 1000
next table: 1380
cur table: 1378
epoch: 1000
next table: 2013
cur table: 2008
epoch: 1000
next table: 1381
cur table: 1380
epoch: 1000
next table: 2014
cur table: 2013
epoch: 1000
next table: 1355
cur table: 1381
epoch: 1000
next table: 2012
cur table: 2014
epoch: 1000
next table: 1386
cur table: 1355
epoch: 1000
next table: 2020
cur table: 2012
epoch: 1000
next table: 1380
cur table: 1386
epoch: 1000
next table: 2003
cur table: 2020
epoch: 1000
next table: 1360
cur table: 1380
epoch: 1000
next table: 2029
cur table: 2003
epoch: 1000
next table: 1370
cur table: 1360
epoch: 1000
next table: 2009
cur table: 2029
epoch: 1000
next table: 1366
cur table: 1370
epoch: 1000
next table: 2009
cur table: 2009
epoch: 1000
next table: 1380
cur table: 1366
epoch: 1000
next table: 2011
cur table: 2009
epoch: 1000
next table: 1368
cur table: 1380
epoch: 1000
next table: 2007
cur table: 2011
epoch: 1000
next table: 1369
cur table: 1368
epoch: 1000
next table: 2028
cur table: 2007
epoch: 1000
next table: 2016
cur table: 2028
epoch: 1000
next table: 1363
cur table: 1369
epoch: 1000
next table: 2006
cur table: 2016
epoch: 1000
next table: 1474
cur table: 1363
epoch: 1000
next table: 2017
cur table: 2006
epoch: 1000
next table: 1362
cur table: 1474
epoch: 1000
next table: 2004
cur table: 2017
epoch: 1000
next table: 1366
cur table: 1362
epoch: 1000
next table: 2037
cur table: 2004
epoch: 1000
next table: 1376
cur table: 1366
epoch: 1000
next table: 2005
cur table: 2037
epoch: 1000
next table: 1357
cur table: 1376
epoch: 1000
next table: 2011
cur table: 2005
epoch: 1000
next table: 1378
cur table: 1357
epoch: 1000
next table: 2020
cur table: 2011
epoch: 1000
next table: 1366
cur table: 1378
epoch: 1000
next table: 2015
cur table: 2020
epoch: 1000
next table: 1393
cur table: 1366
epoch: 1000
next table: 2012
cur table: 2015
epoch: 1000
next table: 1395
cur table: 1393
epoch: 1000
next table: 2013
cur table: 2012
epoch: 1000
next table: 1354
cur table: 1395
epoch: 1000
next table: 2020
cur table: 2013
epoch: 1000
next table: 1369
cur table: 1354
epoch: 1000
next table: 2006
cur table: 2020
epoch: 1000
next table: 1369
cur table: 1369
epoch: 1000
next table: 2011
cur table: 2006
epoch: 1000
next table: 2015
cur table: 2011
epoch: 1000
next table: 1365
cur table: 1369
epoch: 1000
next table: 2019
cur table: 2015
epoch: 1000
next table: 1385
cur table: 1365
epoch: 1000
next table: 2017
cur table: 2019
epoch: 1000
next table: 1359
cur table: 1385
epoch: 1000
next table: 2017
cur table: 2017
epoch: 1000
next table: 1469
cur table: 1359
epoch: 1000
next table: 2013
cur table: 2017
epoch: 1000
next table: 1384
cur table: 1469
epoch: 1000
next table: 2007
cur table: 2013
epoch: 1000
next table: 1381
cur table: 1384
epoch: 1000
next table: 2027
cur table: 2007
epoch: 1000
next table: 1365
cur table: 1381
epoch: 1000
next table: 2015
cur table: 2027
epoch: 1000
next table: 1368
cur table: 1365
epoch: 1000
next table: 2009
cur table: 2015
epoch: 1000
next table: 1373
cur table: 1368
epoch: 1000
next table: 2016
cur table: 2009
epoch: 1000
next table: 1363
cur table: 1373
epoch: 1000
next table: 2008
cur table: 2016
epoch: 1000
next table: 1373
cur table: 1363
epoch: 1000
next table: 2023
cur table: 2008
epoch: 1000
next table: 1373
cur table: 1373
epoch: 1000
next table: 2019
cur table: 2023
epoch: 1000
next table: 1380
cur table: 1373
epoch: 1000
next table: 2021
cur table: 2019
epoch: 1000
next table: 2014
cur table: 2021
epoch: 1000
next table: 1380
cur table: 1380
epoch: 1000
next table: 2010
cur table: 2014
epoch: 1000
next table: 1365
cur table: 1380
epoch: 1000
next table: 2019
cur table: 2010
epoch: 1000
next table: 1380
cur table: 1365
epoch: 1000
next table: 2011
cur table: 2019
epoch: 1000
next table: 1371
cur table: 1380
epoch: 1000
next table: 2024
cur table: 2011
epoch: 1000
next table: 1378
cur table: 1371
epoch: 1000
next table: 2004
cur table: 2024
epoch: 1000
next table: 1436
cur table: 1378
epoch: 1000
next table: 2008
cur table: 2004
epoch: 1000
next table: 1406
cur table: 1436
epoch: 1000
next table: 2017
cur table: 2008
Heartbeat CPU 0 instructions: 10000001 cycles: 3209763 heartbeat IPC: 3.1155 cumulative IPC: 3.1155 (Simulation time: 0 hr 3 min 4 sec) 
epoch: 1000
next table: 1378
cur table: 1406
epoch: 1000
next table: 2014
cur table: 2017
epoch: 1000
next table: 1376
cur table: 1378
epoch: 1000
next table: 2022
cur table: 2014
epoch: 1000
next table: 1372
cur table: 1376
epoch: 1000
next table: 2004
cur table: 2022
epoch: 1000
next table: 1364
cur table: 1372
epoch: 1000
next table: 2010
cur table: 2004
epoch: 1000
next table: 1371
cur table: 1364
epoch: 1000
next table: 2005
cur table: 2010
epoch: 1000
next table: 2002
cur table: 2005
epoch: 1000
next table: 1392
cur table: 1371
epoch: 1000
next table: 2012
cur table: 2002
epoch: 1000
next table: 1392
cur table: 1392
epoch: 1000
next table: 2012
cur table: 2012
epoch: 1000
next table: 1375
cur table: 1392
epoch: 1000
next table: 2023
cur table: 2012
epoch: 1000
next table: 1374
cur table: 1375
epoch: 1000
next table: 2004
cur table: 2023
epoch: 1000
next table: 1385
cur table: 1374
epoch: 1000
next table: 2015
cur table: 2004
epoch: 1000
next table: 1375
cur table: 1385
epoch: 1000
next table: 2011
cur table: 2015
epoch: 1000
next table: 1377
cur table: 1375
epoch: 1000
next table: 2021
cur table: 2011
epoch: 1000
next table: 1373
cur table: 1377
epoch: 1000
next table: 2024
cur table: 2021
epoch: 1000
next table: 1375
cur table: 1373
epoch: 1000
next table: 2005
cur table: 2024
epoch: 1000
next table: 1454
cur table: 1375
epoch: 1000
next table: 2014
cur table: 2005
epoch: 1000
next table: 1378
cur table: 1454
epoch: 1000
next table: 2007
cur table: 2014
epoch: 1000
next table: 1381
cur table: 1378
epoch: 1000
next table: 2018
cur table: 2007
epoch: 1000
next table: 1355
cur table: 1381
epoch: 1000
next table: 2017
cur table: 2018
epoch: 1000
next table: 2007
cur table: 2017
epoch: 1000
next table: 1383
cur table: 1355
epoch: 1000
next table: 2027
cur table: 2007
epoch: 1000
next table: 1373
cur table: 1383
epoch: 1000
next table: 2008
cur table: 2027
epoch: 1000
next table: 1363
cur table: 1373
epoch: 1000
next table: 2013
cur table: 2008
epoch: 1000
next table: 1385
cur table: 1363
epoch: 1000
next table: 2013
cur table: 2013
epoch: 1000
next table: 1383
cur table: 1385
epoch: 1000
next table: 2027
cur table: 2013
epoch: 1000
next table: 1368
cur table: 1383
epoch: 1000
next table: 2013
cur table: 2027
epoch: 1000
next table: 1348
cur table: 1368
epoch: 1000
next table: 2009
cur table: 2013
epoch: 1000
next table: 1396
cur table: 1348
epoch: 1000
next table: 2019
cur table: 2009
epoch: 1000
next table: 1361
cur table: 1396
epoch: 1000
next table: 2018
cur table: 2019
epoch: 1000
next table: 1375
cur table: 1361
epoch: 1000
next table: 2021
cur table: 2018
epoch: 1000
next table: 1368
cur table: 1375
epoch: 1000
next table: 2015
cur table: 2021
epoch: 1000
next table: 1457
cur table: 1368
epoch: 1000
next table: 2008
cur table: 2015
epoch: 1000
next table: 2012
cur table: 2008
epoch: 1000
next table: 1392
cur table: 1457
epoch: 1000
next table: 2032
cur table: 2012
epoch: 1000
next table: 1361
cur table: 1392
epoch: 1000
next table: 2022
cur table: 2032
epoch: 1000
next table: 1363
cur table: 1361
epoch: 1000
next table: 2009
cur table: 2022
epoch: 1000
next table: 1379
cur table: 1363
epoch: 1000
next table: 2011
cur table: 2009
epoch: 1000
next table: 1382
cur table: 1379
epoch: 1000
next table: 2015
cur table: 2011
epoch: 1000
next table: 1361
cur table: 1382
epoch: 1000
next table: 2006
cur table: 2015
epoch: 1000
next table: 1387
cur table: 1361
epoch: 1000
next table: 2014
cur table: 2006
epoch: 1000
next table: 1374
cur table: 1387
epoch: 1000
next table: 2024
cur table: 2014
epoch: 1000
next table: 1360
cur table: 1374
epoch: 1000
next table: 2022
cur table: 2024
epoch: 1000
next table: 1377
cur table: 1360
epoch: 1000
next table: 2001
cur table: 2022
epoch: 1000
next table: 1374
cur table: 1377
epoch: 1000
next table: 2015
cur table: 2001
epoch: 1000
next table: 1355
cur table: 1374
epoch: 1000
next table: 2014
cur table: 2015
epoch: 1000
next table: 1398
cur table: 1355
epoch: 1000
next table: 2012
cur table: 2014
epoch: 1000
next table: 2024
cur table: 2012
epoch: 1000
next table: 1370
cur table: 1398
epoch: 1000
next table: 1995
cur table: 2024
epoch: 1000
next table: 1448
cur table: 1370
epoch: 1000
next table: 2019
cur table: 1995
epoch: 1000
next table: 1381
cur table: 1448
epoch: 1000
next table: 2014
cur table: 2019
epoch: 1000
next table: 1371
cur table: 1381
epoch: 1000
next table: 2014
cur table: 2014
epoch: 1000
next table: 1377
cur table: 1371
epoch: 1000
next table: 2019
cur table: 2014
epoch: 1000
next table: 1372
cur table: 1377
epoch: 1000
next table: 2007
cur table: 2019
epoch: 1000
next table: 1378
cur table: 1372
epoch: 1000
next table: 2017
cur table: 2007
epoch: 1000
next table: 1366
cur table: 1378
epoch: 1000
next table: 2019
cur table: 2017
epoch: 1000
next table: 1375
cur table: 1366
epoch: 1000
next table: 2012
cur table: 2019
epoch: 1000
next table: 1373
cur table: 1375
epoch: 1000
next table: 2014
cur table: 2012
epoch: 1000
next table: 1368
cur table: 1373
epoch: 1000
next table: 2037
cur table: 2014
epoch: 1000
next table: 1374
cur table: 1368
epoch: 1000
next table: 2011
cur table: 2037
epoch: 1000
next table: 1357
cur table: 1374
epoch: 1000
next table: 2009
cur table: 2011
epoch: 1000
next table: 2009
cur table: 2009
epoch: 1000
next table: 1399
cur table: 1357
epoch: 1000
next table: 2024
cur table: 2009
epoch: 1000
next table: 1364
cur table: 1399
epoch: 1000
next table: 2016
cur table: 2024
epoch: 1000
next table: 1376
cur table: 1364
epoch: 1000
next table: 2004
cur table: 2016
epoch: 1000
next table: 1452
cur table: 1376
epoch: 1000
next table: 2010
cur table: 2004
epoch: 1000
next table: 1393
cur table: 1452
epoch: 1000
next table: 2020
cur table: 2010
epoch: 1000
next table: 1374
cur table: 1393
epoch: 1000
next table: 2009
cur table: 2020
epoch: 1000
next table: 1358
cur table: 1374
epoch: 1000
next table: 2030
cur table: 2009
epoch: 1000
next table: 1372
cur table: 1358
epoch: 1000
next table: 2007
cur table: 2030
epoch: 1000
next table: 1377
cur table: 1372
epoch: 1000
next table: 2015
cur table: 2007
epoch: 1000
next table: 1381
cur table: 1377
epoch: 1000
next table: 2015
cur table: 2015
epoch: 1000
next table: 1357
cur table: 1381
epoch: 1000
next table: 2018
cur table: 2015
epoch: 1000
next table: 1381
cur table: 1357
epoch: 1000
next table: 2009
cur table: 2018
epoch: 1000
next table: 1372
cur table: 1381
epoch: 1000
next table: 2023
cur table: 2009
epoch: 1000
next table: 2017
cur table: 2023
epoch: 1000
next table: 1366
cur table: 1372
epoch: 1000
next table: 2009
cur table: 2017
epoch: 1000
next table: 1377
cur table: 1366
epoch: 1000
next table: 2016
cur table: 2009
epoch: 1000
next table: 1374
cur table: 1377
epoch: 1000
next table: 2011
cur table: 2016
epoch: 1000
next table: 1372
cur table: 1374
epoch: 1000
next table: 2024
cur table: 2011
epoch: 1000
next table: 1375
cur table: 1372
epoch: 1000
next table: 2016
cur table: 2024
epoch: 1000
next table: 1456
cur table: 1375
epoch: 1000
next table: 2006
cur table: 2016
epoch: 1000
next table: 1364
cur table: 1456
epoch: 1000
next table: 2013
cur table: 2006
epoch: 1000
next table: 1388
cur table: 1364
epoch: 1000
next table: 2009
cur table: 2013
epoch: 1000
next table: 1379
cur table: 1388
epoch: 1000
next table: 2025
cur table: 2009
epoch: 1000
next table: 1358
cur table: 1379
epoch: 1000
next table: 2022
cur table: 2025
epoch: 1000
next table: 1381
cur table: 1358
epoch: 1000
next table: 2013
cur table: 2022
epoch: 1000
next table: 1374
cur table: 1381
epoch: 1000
next table: 2014
cur table: 2013
epoch: 1000
next table: 1351
cur table: 1374
epoch: 1000
next table: 2020
cur table: 2014
epoch: 1000
next table: 1364
cur table: 1351
epoch: 1000
next table: 2009
cur table: 2020
epoch: 1000
next table: 2012
cur table: 2009
epoch: 1000
next table: 1374
cur table: 1364
epoch: 1000
next table: 2032
cur table: 2012
epoch: 1000
next table: 1378
cur table: 1374
epoch: 1000
next table: 2019
cur table: 2032
epoch: 1000
next table: 1355
cur table: 1378
epoch: 1000
next table: 2005
cur table: 2019
epoch: 1000
next table: 1382
cur table: 1355
epoch: 1000
next table: 2027
cur table: 2005
epoch: 1000
next table: 1355
cur table: 1382
epoch: 1000
next table: 2016
cur table: 2027
epoch: 1000
next table: 1396
cur table: 1355
epoch: 1000
next table: 2023
cur table: 2016
epoch: 1000
next table: 1420
cur table: 1396
epoch: 1000
next table: 2010
cur table: 2023
epoch: 1000
next table: 1408
cur table: 1420
epoch: 1000
next table: 2009
cur table: 2010
epoch: 1000
next table: 1380
cur table: 1408
epoch: 1000
next table: 2021
cur table: 2009
epoch: 1000
next table: 1369
cur table: 1380
epoch: 1000
next table: 2014
cur table: 2021
epoch: 1000
next table: 1375
cur table: 1369
epoch: 1000
next table: 2017
cur table: 2014
epoch: 1000
next table: 1369
cur table: 1375
epoch: 1000
next table: 2009
cur table: 2017
epoch: 1000
next table: 1372
cur table: 1369
epoch: 1000
next table: 2016
cur table: 2009
epoch: 1000
next table: 2015
cur table: 2016
epoch: 1000
next table: 1373
cur table: 1372
epoch: 1000
next table: 2011
cur table: 2015
epoch: 1000
next table: 1383
cur table: 1373
epoch: 1000
next table: 2018
cur table: 2011
epoch: 1000
next table: 1382
cur table: 1383
epoch: 1000
next table: 2045
cur table: 2018
epoch: 1000
next table: 1358
cur table: 1382
epoch: 1000
next table: 2014
cur table: 2045
epoch: 1000
next table: 1377
cur table: 1358
epoch: 1000
next table: 2006
cur table: 2014
epoch: 1000
next table: 1369
cur table: 1377
epoch: 1000
next table: 2009
cur table: 2006
epoch: 1000
next table: 1372
cur table: 1369
epoch: 1000
next table: 2014
cur table: 2009
epoch: 1000
next table: 1386
cur table: 1372
epoch: 1000
next table: 2023
cur table: 2014
epoch: 1000
next table: 1354
cur table: 1386
epoch: 1000
next table: 2015
cur table: 2023
epoch: 1000
next table: 1469
cur table: 1354
epoch: 1000
next table: 2006
cur table: 2015
epoch: 1000
next table: 1372
cur table: 1469
epoch: 1000
next table: 2014
cur table: 2006
epoch: 1000
next table: 1382
cur table: 1372
epoch: 1000
next table: 2016
cur table: 2014
epoch: 1000
next table: 1349
cur table: 1382
epoch: 1000
next table: 2035
cur table: 2016
epoch: 1000
next table: 2013
cur table: 2035
epoch: 1000
next table: 1382
cur table: 1349
epoch: 1000
next table: 2017
cur table: 2013
epoch: 1000
next table: 1365
cur table: 1382
epoch: 1000
next table: 2015
cur table: 2017
epoch: 1000
next table: 1367
cur table: 1365
epoch: 1000
next table: 2013
cur table: 2015
epoch: 1000
next table: 1363
cur table: 1367
epoch: 1000
next table: 2014
cur table: 2013
epoch: 1000
next table: 1375
cur table: 1363
epoch: 1000
next table: 2014
cur table: 2014
epoch: 1000
next table: 1370
cur table: 1375
epoch: 1000
next table: 2025
cur table: 2014
epoch: 1000
next table: 1376
cur table: 1370
epoch: 1000
next table: 2010
cur table: 2025
epoch: 1000
next table: 1365
cur table: 1376
epoch: 1000
next table: 2011
cur table: 2010
epoch: 1000
next table: 1367
cur table: 1365
epoch: 1000
next table: 2005
cur table: 2011
epoch: 1000
next table: 1387
cur table: 1367
epoch: 1000
next table: 2015
cur table: 2005
epoch: 1000
next table: 1369
cur table: 1387
epoch: 1000
next table: 2016
cur table: 2015
epoch: 1000
next table: 1457
cur table: 1369
epoch: 1000
next table: 2010
cur table: 2016
epoch: 1000
next table: 2010
cur table: 2010
epoch: 1000
next table: 1372
cur table: 1457
epoch: 1000
next table: 2012
cur table: 2010
epoch: 1000
next table: 1387
cur table: 1372
Heartbeat CPU 0 instructions: 20000000 cycles: 6419552 heartbeat IPC: 3.11547 cumulative IPC: 3.11548 (Simulation time: 0 hr 5 min 58 sec) 
epoch: 1000
next table: 2007
cur table: 2012
epoch: 1000
next table: 1390
cur table: 1387
epoch: 1000
next table: 2013
cur table: 2007
epoch: 1000
next table: 1354
cur table: 1390
epoch: 1000
next table: 2018
cur table: 2013
epoch: 1000
next table: 1407
cur table: 1354
epoch: 1000
next table: 2012
cur table: 2018
epoch: 1000
next table: 1515
cur table: 1407
epoch: 1000
next table: 2013
cur table: 2012
epoch: 1000
next table: 1376
cur table: 1515
epoch: 1000
next table: 2011
cur table: 2013
epoch: 1000
next table: 1390
cur table: 1376
epoch: 1000
next table: 2010
cur table: 2011
epoch: 1000
next table: 1371
cur table: 1390
epoch: 1000
next table: 2021
cur table: 2010
epoch: 1000
next table: 1377
cur table: 1371
epoch: 1000
next table: 2019
cur table: 2021
epoch: 1000
next table: 1371
cur table: 1377
epoch: 1000
next table: 2005
cur table: 2019
epoch: 1000
next table: 1377
cur table: 1371
epoch: 1000
next table: 2021
cur table: 2005
epoch: 1000
next table: 1384
cur table: 1377
epoch: 1000
next table: 2015
cur table: 2021
epoch: 1000
next table: 2021
cur table: 2015
epoch: 1000
next table: 1365
cur table: 1384
epoch: 1000
next table: 2007
cur table: 2021
epoch: 1000
next table: 1438
cur table: 1365
epoch: 1000
next table: 2015
cur table: 2007
epoch: 1000
next table: 1374
cur table: 1438
epoch: 1000
next table: 2021
cur table: 2015
epoch: 1000
next table: 1383
cur table: 1374
epoch: 1000
next table: 2018
cur table: 2021
epoch: 1000
next table: 1368
cur table: 1383
epoch: 1000
next table: 2022
cur table: 2018
epoch: 1000
next table: 1368
cur table: 1368
epoch: 1000
next table: 2010
cur table: 2022
epoch: 1000
next table: 1377
cur table: 1368
epoch: 1000
next table: 2005
cur table: 2010
epoch: 1000
next table: 1361
cur table: 1377
epoch: 1000
next table: 2022
cur table: 2005
epoch: 1000
next table: 1364
cur table: 1361
epoch: 1000
next table: 2007
cur table: 2022
epoch: 1000
next table: 1374
cur table: 1364
epoch: 1000
next table: 2017
cur table: 2007
epoch: 1000
next table: 1362
cur table: 1374
epoch: 1000
next table: 2014
cur table: 2017
epoch: 1000
next table: 1391
cur table: 1362
epoch: 1000
next table: 2026
cur table: 2014
epoch: 1000
next table: 1366
cur table: 1391
epoch: 1000
next table: 2010
cur table: 2026
epoch: 1000
next table: 1359
cur table: 1366
epoch: 1000
next table: 2005
cur table: 2010
epoch: 1000
next table: 2021
cur table: 2005
epoch: 1000
next table: 1389
cur table: 1359
epoch: 1000
next table: 2011
cur table: 2021
epoch: 1000
next table: 1367
cur table: 1389
epoch: 1000
next table: 2019
cur table: 2011
epoch: 1000
next table: 1477
cur table: 1367
epoch: 1000
next table: 2002
cur table: 2019
epoch: 1000
next table: 1364
cur table: 1477
epoch: 1000
next table: 2014
cur table: 2002
epoch: 1000
next table: 1384
cur table: 1364
epoch: 1000
next table: 2014
cur table: 2014
epoch: 1000
next table: 1384
cur table: 1384
epoch: 1000
next table: 2019
cur table: 2014
epoch: 1000
next table: 1364
cur table: 1384
epoch: 1000
next table: 2022
cur table: 2019
epoch: 1000
next table: 1380
cur table: 1364
epoch: 1000
next table: 2011
cur table: 2022
epoch: 1000
next table: 1369
cur table: 1380
epoch: 1000
next table: 2017
cur table: 2011
epoch: 1000
next table: 1377
cur table: 1369
epoch: 1000
next table: 2011
cur table: 2017
epoch: 1000
next table: 1352
cur table: 1377
epoch: 1000
next table: 2017
cur table: 2011
epoch: 1000
next table: 1384
cur table: 1352
epoch: 1000
next table: 2015
cur table: 2017
epoch: 1000
next table: 1357
cur table: 1384
epoch: 1000
next table: 2023
cur table: 2015
epoch: 1000
next table: 1386
cur table: 1357
epoch: 1000
next table: 2016
cur table: 2023
epoch: 1000
next table: 2009
cur table: 2016
epoch: 1000
next table: 1360
cur table: 1386
epoch: 1000
next table: 2016
cur table: 2009
epoch: 1000
next table: 1376
cur table: 1360
epoch: 1000
next table: 2020
cur table: 2016
epoch: 1000
next table: 1374
cur table: 1376
epoch: 1000
next table: 2025
cur table: 2020
epoch: 1000
next table: 1427
cur table: 1374
epoch: 1000
next table: 2010
cur table: 2025
epoch: 1000
next table: 1419
cur table: 1427
epoch: 1000
next table: 2011
cur table: 2010
epoch: 1000
next table: 1351
cur table: 1419
epoch: 1000
next table: 2016
cur table: 2011
epoch: 1000
next table: 1373
cur table: 1351
epoch: 1000
next table: 2013
cur table: 2016
epoch: 1000
next table: 1368
cur table: 1373
epoch: 1000
next table: 2016
cur table: 2013
epoch: 1000
next table: 1374
cur table: 1368
epoch: 1000
next table: 2022
cur table: 2016
epoch: 1000
next table: 1388
cur table: 1374
epoch: 1000
next table: 2009
cur table: 2022
epoch: 1000
next table: 1377
cur table: 1388
epoch: 1000
next table: 2019
cur table: 2009
epoch: 1000
next table: 1366
cur table: 1377
epoch: 1000
next table: 2017
cur table: 2019
epoch: 1000
next table: 1386
cur table: 1366
epoch: 1000
next table: 2011
cur table: 2017
epoch: 1000
next table: 2012
cur table: 2011
epoch: 1000
next table: 1378
cur table: 1386
epoch: 1000
next table: 2034
cur table: 2012
epoch: 1000
next table: 1371
cur table: 1378
epoch: 1000
next table: 2010
cur table: 2034
epoch: 1000
next table: 1367
cur table: 1371
epoch: 1000
next table: 2014
cur table: 2010
epoch: 1000
next table: 1386
cur table: 1367
epoch: 1000
next table: 2008
cur table: 2014
epoch: 1000
next table: 1371
cur table: 1386
epoch: 1000
next table: 2022
cur table: 2008
epoch: 1000
next table: 1372
cur table: 1371
epoch: 1000
next table: 2008
cur table: 2022
epoch: 1000
next table: 1458
cur table: 1372
epoch: 1000
next table: 2005
cur table: 2008
epoch: 1000
next table: 1386
cur table: 1458
epoch: 1000
next table: 2010
cur table: 2005
epoch: 1000
next table: 1381
cur table: 1386
epoch: 1000
next table: 2012
cur table: 2010
epoch: 1000
next table: 1361
cur table: 1381
epoch: 1000
next table: 2028
cur table: 2012
epoch: 1000
next table: 1367
cur table: 1361
epoch: 1000
next table: 2015
cur table: 2028
epoch: 1000
next table: 1383
cur table: 1367
epoch: 1000
next table: 2004
cur table: 2015
epoch: 1000
next table: 1358
cur table: 1383
epoch: 1000
next table: 2010
cur table: 2004
epoch: 1000
next table: 2013
cur table: 2010
epoch: 1000
next table: 1371
cur table: 1358
epoch: 1000
next table: 2009
cur table: 2013
epoch: 1000
next table: 1390
cur table: 1371
epoch: 1000
next table: 2012
cur table: 2009
epoch: 1000
next table: 1352
cur table: 1390
epoch: 1000
next table: 2024
cur table: 2012
epoch: 1000
next table: 1390
cur table: 1352
epoch: 1000
next table: 2014
cur table: 2024
epoch: 1000
next table: 1382
cur table: 1390
epoch: 1000
next table: 2007
cur table: 2014
epoch: 1000
next table: 1355
cur table: 1382
epoch: 1000
next table: 2019
cur table: 2007
epoch: 1000
next table: 1393
cur table: 1355
epoch: 1000
next table: 2018
cur table: 2019
epoch: 1000
next table: 1363
cur table: 1393
epoch: 1000
next table: 2022
cur table: 2018
epoch: 1000
next table: 1464
cur table: 1363
epoch: 1000
next table: 2005
cur table: 2022
epoch: 1000
next table: 1359
cur table: 1464
epoch: 1000
next table: 2009
cur table: 2005
epoch: 1000
next table: 1374
cur table: 1359
epoch: 1000
next table: 2014
cur table: 2009
epoch: 1000
next table: 1379
cur table: 1374
epoch: 1000
next table: 2009
cur table: 2014
epoch: 1000
next table: 1368
cur table: 1379
epoch: 1000
next table: 2033
cur table: 2009
epoch: 1000
next table: 2006
cur table: 2033
epoch: 1000
next table: 1380
cur table: 1368
epoch: 1000
next table: 2015
cur table: 2006
epoch: 1000
next table: 1364
cur table: 1380
epoch: 1000
next table: 2016
cur table: 2015
epoch: 1000
next table: 1367
cur table: 1364
epoch: 1000
next table: 2011
cur table: 2016
epoch: 1000
next table: 1369
cur table: 1367
epoch: 1000
next table: 2010
cur table: 2011
epoch: 1000
next table: 1373
cur table: 1369
epoch: 1000
next table: 2013
cur table: 2010
epoch: 1000
next table: 1376
cur table: 1373
epoch: 1000
next table: 2027
cur table: 2013
epoch: 1000
next table: 1365
cur table: 1376
epoch: 1000
next table: 2004
cur table: 2027
epoch: 1000
next table: 1382
cur table: 1365
epoch: 1000
next table: 2015
cur table: 2004
epoch: 1000
next table: 1378
cur table: 1382
epoch: 1000
next table: 2018
cur table: 2015
epoch: 1000
next table: 1369
cur table: 1378
epoch: 1000
next table: 2017
cur table: 2018
epoch: 1000
next table: 1471
cur table: 1369
epoch: 1000
next table: 2013
cur table: 2017
epoch: 1000
next table: 1381
cur table: 1471
epoch: 1000
next table: 2015
cur table: 2013
epoch: 1000
next table: 1371
cur table: 1381
epoch: 1000
next table: 2013
cur table: 2015
epoch: 1000
next table: 2022
cur table: 2013
epoch: 1000
next table: 1372
cur table: 1371
epoch: 1000
next table: 2009
cur table: 2022
epoch: 1000
next table: 1384
cur table: 1372
epoch: 1000
next table: 2021
cur table: 2009
epoch: 1000
next table: 1373
cur table: 1384
epoch: 1000
next table: 2011
cur table: 2021
epoch: 1000
next table: 1365
cur table: 1373
epoch: 1000
next table: 2020
cur table: 2011
epoch: 1000
next table: 1384
cur table: 1365
epoch: 1000
next table: 2017
cur table: 2020
epoch: 1000
next table: 1368
cur table: 1384
epoch: 1000
next table: 2002
cur table: 2017
epoch: 1000
next table: 1373
cur table: 1368
epoch: 1000
next table: 2009
cur table: 2002
epoch: 1000
next table: 1383
cur table: 1373
epoch: 1000
next table: 2027
cur table: 2009
epoch: 1000
next table: 1386
cur table: 1383
epoch: 1000
next table: 2008
cur table: 2027
epoch: 1000
next table: 1355
cur table: 1386
epoch: 1000
next table: 2007
cur table: 2008
epoch: 1000
next table: 1380
cur table: 1355
epoch: 1000
next table: 2013
cur table: 2007
epoch: 1000
next table: 1374
cur table: 1380
epoch: 1000
next table: 2020
cur table: 2013
epoch: 1000
next table: 1453
cur table: 1374
epoch: 1000
next table: 2018
cur table: 2020
epoch: 1000
next table: 1366
cur table: 1453
epoch: 1000
next table: 2014
cur table: 2018
epoch: 1000
next table: 2009
cur table: 2014
epoch: 1000
next table: 1371
cur table: 1366
epoch: 1000
next table: 2018
cur table: 2009
epoch: 1000
next table: 1375
cur table: 1371
epoch: 1000
next table: 2016
cur table: 2018
epoch: 1000
next table: 1361
cur table: 1375
epoch: 1000
next table: 2029
cur table: 2016
epoch: 1000
next table: 1369
cur table: 1361
epoch: 1000
next table: 2007
cur table: 2029
epoch: 1000
next table: 1373
cur table: 1369
epoch: 1000
next table: 2012
cur table: 2007
epoch: 1000
next table: 1356
cur table: 1373
epoch: 1000
next table: 2019
cur table: 2012
epoch: 1000
next table: 1381
cur table: 1356
epoch: 1000
next table: 2014
cur table: 2019
epoch: 1000
next table: 1380
cur table: 1381
epoch: 1000
next table: 2016
cur table: 2014
epoch: 1000
next table: 1378
cur table: 1380
epoch: 1000
next table: 2017
cur table: 2016
epoch: 1000
next table: 1380
cur table: 1378
epoch: 1000
next table: 2025
cur table: 2017
epoch: 1000
next table: 1366
cur table: 1380
epoch: 1000
next table: 2012
cur table: 2025
epoch: 1000
next table: 1364
cur table: 1366
epoch: 1000
next table: 2010
cur table: 2012
epoch: 1000
next table: 1371
cur table: 1364
epoch: 1000
next table: 2013
cur table: 2010
epoch: 1000
next table: 2018
cur table: 2013
epoch: 1000
next table: 1432
cur table: 1371
epoch: 1000
next table: 2011
cur table: 2018
epoch: 1000
next table: 1407
cur table: 1432
epoch: 1000
next table: 2003
cur table: 2011
epoch: 1000
next table: 1377
cur table: 1407
epoch: 1000
next table: 2014
cur table: 2003
epoch: 1000
next table: 1372
cur table: 1377
epoch: 1000
next table: 2013
cur table: 2014
epoch: 1000
next table: 1366
cur table: 1372
epoch: 1000
next table: 2018
cur table: 2013
Heartbeat CPU 0 instructions: 30000003 cycles: 9629448 heartbeat IPC: 3.11537 cumulative IPC: 3.11544 (Simulation time: 0 hr 8 min 53 sec) 
epoch: 1000
next table: 1376
cur table: 1366
epoch: 1000
next table: 2023
cur table: 2018
epoch: 1000
next table: 1363
cur table: 1376
epoch: 1000
next table: 2008
cur table: 2023
epoch: 1000
next table: 1382
cur table: 1363
epoch: 1000
next table: 2012
cur table: 2008
epoch: 1000
next table: 1366
cur table: 1382
epoch: 1000
next table: 2014
cur table: 2012
epoch: 1000
next table: 1382
cur table: 1366
epoch: 1000
next table: 2019
cur table: 2014
epoch: 1000
next table: 1383
cur table: 1382
epoch: 1000
next table: 2018
cur table: 2019
epoch: 1000
next table: 1372
cur table: 1383
epoch: 1000
next table: 2018
cur table: 2018
epoch: 1000
next table: 1380
cur table: 1372
epoch: 1000
next table: 2012
cur table: 2018
epoch: 1000
next table: 2009
cur table: 2012
epoch: 1000
next table: 1373
cur table: 1380
epoch: 1000
next table: 2019
cur table: 2009
epoch: 1000
next table: 1372
cur table: 1373
epoch: 1000
next table: 2004
cur table: 2019
epoch: 1000
next table: 1368
cur table: 1372
epoch: 1000
next table: 2017
cur table: 2004
epoch: 1000
next table: 1462
cur table: 1368
epoch: 1000
next table: 2027
cur table: 2017
epoch: 1000
next table: 1363
cur table: 1462
epoch: 1000
next table: 2014
cur table: 2027
epoch: 1000
next table: 1373
cur table: 1363
epoch: 1000
next table: 2019
cur table: 2014
epoch: 1000
next table: 1379
cur table: 1373
epoch: 1000
next table: 2007
cur table: 2019
epoch: 1000
next table: 1362
cur table: 1379
epoch: 1000
next table: 2021
cur table: 2007
epoch: 1000
next table: 1391
cur table: 1362
epoch: 1000
next table: 2006
cur table: 2021
epoch: 1000
next table: 1373
cur table: 1391
epoch: 1000
next table: 2018
cur table: 2006
epoch: 1000
next table: 1365
cur table: 1373
epoch: 1000
next table: 2013
cur table: 2018
epoch: 1000
next table: 1371
cur table: 1365
epoch: 1000
next table: 2011
cur table: 2013
epoch: 1000
next table: 1381
cur table: 1371
epoch: 1000
next table: 2020
cur table: 2011
epoch: 1000
next table: 2020
cur table: 2020
epoch: 1000
next table: 1378
cur table: 1381
epoch: 1000
next table: 2029
cur table: 2020
epoch: 1000
next table: 1367
cur table: 1378
epoch: 1000
next table: 2008
cur table: 2029
epoch: 1000
next table: 1387
cur table: 1367
epoch: 1000
next table: 2015
cur table: 2008
epoch: 1000
next table: 1371
cur table: 1387
epoch: 1000
next table: 2014
cur table: 2015
epoch: 1000
next table: 1375
cur table: 1371
epoch: 1000
next table: 2010
cur table: 2014
epoch: 1000
next table: 1449
cur table: 1375
epoch: 1000
next table: 2025
cur table: 2010
epoch: 1000
next table: 1378
cur table: 1449
epoch: 1000
next table: 2008
cur table: 2025
epoch: 1000
next table: 1374
cur table: 1378
epoch: 1000
next table: 2021
cur table: 2008
epoch: 1000
next table: 1371
cur table: 1374
epoch: 1000
next table: 2013
cur table: 2021
epoch: 1000
next table: 1372
cur table: 1371
epoch: 1000
next table: 2019
cur table: 2013
epoch: 1000
next table: 1357
cur table: 1372
epoch: 1000
next table: 2016
cur table: 2019
epoch: 1000
next table: 1360
cur table: 1357
epoch: 1000
next table: 2016
cur table: 2016
epoch: 1000
next table: 1365
cur table: 1360
epoch: 1000
next table: 2012
cur table: 2016
epoch: 1000
next table: 2007
cur table: 2012
epoch: 1000
next table: 1363
cur table: 1365
epoch: 1000
next table: 2010
cur table: 2007
epoch: 1000
next table: 1383
cur table: 1363
epoch: 1000
next table: 2012
cur table: 2010
epoch: 1000
next table: 1380
cur table: 1383
epoch: 1000
next table: 2023
cur table: 2012
epoch: 1000
next table: 1357
cur table: 1380
epoch: 1000
next table: 2014
cur table: 2023
epoch: 1000
next table: 1385
cur table: 1357
epoch: 1000
next table: 2008
cur table: 2014
epoch: 1000
next table: 1379
cur table: 1385
epoch: 1000
next table: 2013
cur table: 2008
epoch: 1000
next table: 1364
cur table: 1379
epoch: 1000
next table: 2018
cur table: 2013
epoch: 1000
next table: 1459
cur table: 1364
epoch: 1000
next table: 2010
cur table: 2018
epoch: 1000
next table: 1376
cur table: 1459
epoch: 1000
next table: 2014
cur table: 2010
epoch: 1000
next table: 1379
cur table: 1376
epoch: 1000
next table: 2008
cur table: 2014
epoch: 1000
next table: 1368
cur table: 1379
epoch: 1000
next table: 2022
cur table: 2008
epoch: 1000
next table: 1375
cur table: 1368
epoch: 1000
next table: 2014
cur table: 2022
epoch: 1000
next table: 1376
cur table: 1375
epoch: 1000
next table: 2024
cur table: 2014
epoch: 1000
next table: 2009
cur table: 2024
epoch: 1000
next table: 1378
cur table: 1376
epoch: 1000
next table: 2013
cur table: 2009
epoch: 1000
next table: 1368
cur table: 1378
epoch: 1000
next table: 2019
cur table: 2013
epoch: 1000
next table: 1377
cur table: 1368
epoch: 1000
next table: 2010
cur table: 2019
epoch: 1000
next table: 1363
cur table: 1377
epoch: 1000
next table: 2027
cur table: 2010
epoch: 1000
next table: 1366
cur table: 1363
epoch: 1000
next table: 2007
cur table: 2027
epoch: 1000
next table: 1387
cur table: 1366
epoch: 1000
next table: 2037
cur table: 2007
epoch: 1000
next table: 1352
cur table: 1387
epoch: 1000
next table: 2004
cur table: 2037
epoch: 1000
next table: 1379
cur table: 1352
epoch: 1000
next table: 2016
cur table: 2004
epoch: 1000
next table: 1388
cur table: 1379
epoch: 1000
next table: 2006
cur table: 2016
epoch: 1000
next table: 1461
cur table: 1388
epoch: 1000
next table: 2008
cur table: 2006
epoch: 1000
next table: 1377
cur table: 1461
epoch: 1000
next table: 2029
cur table: 2008
epoch: 1000
next table: 1357
cur table: 1377
epoch: 1000
next table: 2003
cur table: 2029
epoch: 1000
next table: 1384
cur table: 1357
epoch: 1000
next table: 2019
cur table: 2003
epoch: 1000
next table: 2014
cur table: 2019
epoch: 1000
next table: 1383
cur table: 1384
epoch: 1000
next table: 2018
cur table: 2014
epoch: 1000
next table: 1360
cur table: 1383
epoch: 1000
next table: 2020
cur table: 2018
epoch: 1000
next table: 1376
cur table: 1360
epoch: 1000
next table: 2001
cur table: 2020
epoch: 1000
next table: 1370
cur table: 1376
epoch: 1000
next table: 2014
cur table: 2001
epoch: 1000
next table: 1367
cur table: 1370
epoch: 1000
next table: 2013
cur table: 2014
epoch: 1000
next table: 1367
cur table: 1367
epoch: 1000
next table: 2015
cur table: 2013
epoch: 1000
next table: 1393
cur table: 1367
epoch: 1000
next table: 2016
cur table: 2015
epoch: 1000
next table: 1359
cur table: 1393
epoch: 1000
next table: 2025
cur table: 2016
epoch: 1000
next table: 1360
cur table: 1359
epoch: 1000
next table: 2023
cur table: 2025
epoch: 1000
next table: 1363
cur table: 1360
epoch: 1000
next table: 2014
cur table: 2023
epoch: 1000
next table: 1362
cur table: 1363
epoch: 1000
next table: 2022
cur table: 2014
epoch: 1000
next table: 1459
cur table: 1362
epoch: 1000
next table: 2014
cur table: 2022
epoch: 1000
next table: 1361
cur table: 1459
epoch: 1000
next table: 2027
cur table: 2014
epoch: 1000
next table: 2017
cur table: 2027
epoch: 1000
next table: 1387
cur table: 1361
epoch: 1000
next table: 2010
cur table: 2017
epoch: 1000
next table: 1365
cur table: 1387
epoch: 1000
next table: 2028
cur table: 2010
epoch: 1000
next table: 1375
cur table: 1365
epoch: 1000
next table: 2018
cur table: 2028
epoch: 1000
next table: 1384
cur table: 1375
epoch: 1000
next table: 2026
cur table: 2018
epoch: 1000
next table: 1369
cur table: 1384
epoch: 1000
next table: 2003
cur table: 2026
epoch: 1000
next table: 1371
cur table: 1369
epoch: 1000
next table: 2016
cur table: 2003
epoch: 1000
next table: 1364
cur table: 1371
epoch: 1000
next table: 2010
cur table: 2016
epoch: 1000
next table: 1369
cur table: 1364
epoch: 1000
next table: 2023
cur table: 2010
epoch: 1000
next table: 1389
cur table: 1369
epoch: 1000
next table: 2007
cur table: 2023
epoch: 1000
next table: 1380
cur table: 1389
epoch: 1000
next table: 2016
cur table: 2007
epoch: 1000
next table: 1375
cur table: 1380
epoch: 1000
next table: 2029
cur table: 2016
epoch: 1000
next table: 1354
cur table: 1375
epoch: 1000
next table: 2006
cur table: 2029
epoch: 1000
next table: 1390
cur table: 1354
epoch: 1000
next table: 2013
cur table: 2006
epoch: 1000
next table: 2020
cur table: 2013
epoch: 1000
next table: 1384
cur table: 1390
epoch: 1000
next table: 2005
cur table: 2020
epoch: 1000
next table: 1443
cur table: 1384
epoch: 1000
next table: 2033
cur table: 2005
epoch: 1000
next table: 1367
cur table: 1443
epoch: 1000
next table: 2012
cur table: 2033
epoch: 1000
next table: 1391
cur table: 1367
epoch: 1000
next table: 2008
cur table: 2012
epoch: 1000
next table: 1373
cur table: 1391
epoch: 1000
next table: 2012
cur table: 2008
epoch: 1000
next table: 1389
cur table: 1373
epoch: 1000
next table: 2026
cur table: 2012
epoch: 1000
next table: 1371
cur table: 1389
epoch: 1000
next table: 2021
cur table: 2026
epoch: 1000
next table: 1373
cur table: 1371
epoch: 1000
next table: 1999
cur table: 2021
epoch: 1000
next table: 1360
cur table: 1373
epoch: 1000
next table: 2014
cur table: 1999
epoch: 1000
next table: 1363
cur table: 1360
epoch: 1000
next table: 2016
cur table: 2014
epoch: 1000
next table: 1378
cur table: 1363
epoch: 1000
next table: 2017
cur table: 2016
epoch: 1000
next table: 1363
cur table: 1378
epoch: 1000
next table: 2006
cur table: 2017
epoch: 1000
next table: 1370
cur table: 1363
epoch: 1000
next table: 2031
cur table: 2006
epoch: 1000
next table: 2017
cur table: 2031
epoch: 1000
next table: 1363
cur table: 1370
epoch: 1000
next table: 2014
cur table: 2017
epoch: 1000
next table: 1378
cur table: 1363
epoch: 1000
next table: 2011
cur table: 2014
epoch: 1000
next table: 1371
cur table: 1378
epoch: 1000
next table: 1996
cur table: 2011
epoch: 1000
next table: 1473
cur table: 1371
epoch: 1000
next table: 2031
cur table: 1996
epoch: 1000
next table: 1368
cur table: 1473
epoch: 1000
next table: 2013
cur table: 2031
epoch: 1000
next table: 1359
cur table: 1368
epoch: 1000
next table: 2016
cur table: 2013
epoch: 1000
next table: 1380
cur table: 1359
epoch: 1000
next table: 2015
cur table: 2016
epoch: 1000
next table: 1374
cur table: 1380
epoch: 1000
next table: 2011
cur table: 2015
epoch: 1000
next table: 1380
cur table: 1374
epoch: 1000
next table: 2024
cur table: 2011
epoch: 1000
next table: 1371
cur table: 1380
epoch: 1000
next table: 2014
cur table: 2024
epoch: 1000
next table: 1371
cur table: 1371
epoch: 1000
next table: 2011
cur table: 2014
epoch: 1000
next table: 1366
cur table: 1371
epoch: 1000
next table: 2018
cur table: 2011
epoch: 1000
next table: 1359
cur table: 1366
epoch: 1000
next table: 2014
cur table: 2018
epoch: 1000
next table: 2006
cur table: 2014
epoch: 1000
next table: 1376
cur table: 1359
epoch: 1000
next table: 2020
cur table: 2006
epoch: 1000
next table: 1390
cur table: 1376
epoch: 1000
next table: 2018
cur table: 2020
epoch: 1000
next table: 1359
cur table: 1390
epoch: 1000
next table: 2015
cur table: 2018
epoch: 1000
next table: 1361
cur table: 1359
epoch: 1000
next table: 2008
cur table: 2015
epoch: 1000
next table: 1377
cur table: 1361
epoch: 1000
next table: 2018
cur table: 2008
epoch: 1000
next table: 1444
cur table: 1377
epoch: 1000
next table: 2022
cur table: 2018
epoch: 1000
next table: 1385
cur table: 1444
epoch: 1000
next table: 2025
cur table: 2022
epoch: 1000
next table: 1387
cur table: 1385
epoch: 1000
next table: 2020
cur table: 2025
epoch: 1000
next table: 1374
cur table: 1387
epoch: 1000
next table: 2018
cur table: 2020
epoch: 1000
next table: 1376
cur table: 1374
epoch: 1000
next table: 2015
cur table: 2018
epoch: 1000
next table: 1376
cur table: 1376
epoch: 1000
next table: 2020
cur table: 2015
Heartbeat CPU 0 instructions: 40000001 cycles: 12839101 heartbeat IPC: 3.1156 cumulative IPC: 3.11548 (Simulation time: 0 hr 11 min 48 sec) 
epoch: 1000
next table: 1370
cur table: 1376
epoch: 1000
next table: 2013
cur table: 2020
epoch: 1000
next table: 1380
cur table: 1370
epoch: 1000
next table: 2016
cur table: 2013
epoch: 1000
next table: 2014
cur table: 2016
epoch: 1000
next table: 1353
cur table: 1380
epoch: 1000
next table: 2015
cur table: 2014
epoch: 1000
next table: 1364
cur table: 1353
epoch: 1000
next table: 2017
cur table: 2015
epoch: 1000
next table: 1378
cur table: 1364
epoch: 1000
next table: 2012
cur table: 2017
epoch: 1000
next table: 1371
cur table: 1378
epoch: 1000
next table: 2032
cur table: 2012
epoch: 1000
next table: 1384
cur table: 1371
epoch: 1000
next table: 2009
cur table: 2032
epoch: 1000
next table: 1380
cur table: 1384
epoch: 1000
next table: 2016
cur table: 2009
epoch: 1000
next table: 1383
cur table: 1380
epoch: 1000
next table: 2010
cur table: 2016
epoch: 1000
next table: 1465
cur table: 1383
epoch: 1000
next table: 2006
cur table: 2010
epoch: 1000
next table: 1366
cur table: 1465
epoch: 1000
next table: 2023
cur table: 2006
epoch: 1000
next table: 1367
cur table: 1366
epoch: 1000
next table: 2017
cur table: 2023
epoch: 1000
next table: 1374
cur table: 1367
epoch: 1000
next table: 2009
cur table: 2017
epoch: 1000
next table: 1382
cur table: 1374
epoch: 1000
next table: 2009
cur table: 2009
epoch: 1000
next table: 1364
cur table: 1382
epoch: 1000
next table: 2014
cur table: 2009
epoch: 1000
next table: 2023
cur table: 2014
epoch: 1000
next table: 1371
cur table: 1364
epoch: 1000
next table: 2009
cur table: 2023
epoch: 1000
next table: 1380
cur table: 1371
epoch: 1000
next table: 2014
cur table: 2009
epoch: 1000
next table: 1371
cur table: 1380
epoch: 1000
next table: 2024
cur table: 2014
epoch: 1000
next table: 1363
cur table: 1371
epoch: 1000
next table: 2012
cur table: 2024
epoch: 1000
next table: 1375
cur table: 1363
epoch: 1000
next table: 2009
cur table: 2012
epoch: 1000
next table: 1370
cur table: 1375
epoch: 1000
next table: 2024
cur table: 2009
epoch: 1000
next table: 1370
cur table: 1370
epoch: 1000
next table: 2016
cur table: 2024
epoch: 1000
next table: 1379
cur table: 1370
epoch: 1000
next table: 2010
cur table: 2016
epoch: 1000
next table: 1390
cur table: 1379
epoch: 1000
next table: 2014
cur table: 2010
epoch: 1000
next table: 1463
cur table: 1390
epoch: 1000
next table: 2017
cur table: 2014
epoch: 1000
next table: 1385
cur table: 1463
epoch: 1000
next table: 2015
cur table: 2017
epoch: 1000
next table: 1371
cur table: 1385
epoch: 1000
next table: 2032
cur table: 2015
epoch: 1000
next table: 1369
cur table: 1371
epoch: 1000
next table: 2012
cur table: 2032
epoch: 1000
next table: 2016
cur table: 2012
epoch: 1000
next table: 1365
cur table: 1369
epoch: 1000
next table: 2007
cur table: 2016
epoch: 1000
next table: 1382
cur table: 1365
epoch: 1000
next table: 2019
cur table: 2007
epoch: 1000
next table: 1376
cur table: 1382
epoch: 1000
next table: 2015
cur table: 2019
epoch: 1000
next table: 1370
cur table: 1376
epoch: 1000
next table: 2014
cur table: 2015
epoch: 1000
next table: 1359
cur table: 1370
epoch: 1000
next table: 2019
cur table: 2014
epoch: 1000
next table: 1366
cur table: 1359
epoch: 1000
next table: 2009
cur table: 2019
epoch: 1000
next table: 1369
cur table: 1366
epoch: 1000
next table: 2006
cur table: 2009
epoch: 1000
next table: 1380
cur table: 1369
epoch: 1000
next table: 2013
cur table: 2006
epoch: 1000
next table: 1376
cur table: 1380
epoch: 1000
next table: 2021
cur table: 2013
epoch: 1000
next table: 1356
cur table: 1376
epoch: 1000
next table: 2014
cur table: 2021
epoch: 1000
next table: 1365
cur table: 1356
epoch: 1000
next table: 2016
cur table: 2014
epoch: 1000
next table: 1432
cur table: 1365
epoch: 1000
next table: 2015
cur table: 2016
epoch: 1000
next table: 1404
cur table: 1432
epoch: 1000
next table: 2002
cur table: 2015
epoch: 1000
next table: 2030
cur table: 2002
epoch: 1000
next table: 1383
cur table: 1404
epoch: 1000
next table: 2022
cur table: 2030
epoch: 1000
next table: 1383
cur table: 1383
epoch: 1000
next table: 2016
cur table: 2022
epoch: 1000
next table: 1366
cur table: 1383
epoch: 1000
next table: 2020
cur table: 2016
epoch: 1000
next table: 1371
cur table: 1366
epoch: 1000
next table: 2020
cur table: 2020
epoch: 1000
next table: 1386
cur table: 1371
epoch: 1000
next table: 2018
cur table: 2020
epoch: 1000
next table: 1370
cur table: 1386
epoch: 1000
next table: 2010
cur table: 2018
epoch: 1000
next table: 1373
cur table: 1370
epoch: 1000
next table: 2015
cur table: 2010
epoch: 1000
next table: 1374
cur table: 1373
epoch: 1000
next table: 2014
cur table: 2015
epoch: 1000
next table: 1379
cur table: 1374
epoch: 1000
next table: 2008
cur table: 2014
epoch: 1000
next table: 1375
cur table: 1379
epoch: 1000
next table: 2010
cur table: 2008
epoch: 1000
next table: 1381
cur table: 1375
epoch: 1000
next table: 2018
cur table: 2010
epoch: 1000
next table: 1362
cur table: 1381
epoch: 1000
next table: 2026
cur table: 2018
epoch: 1000
next table: 1366
cur table: 1362
epoch: 1000
next table: 2007
cur table: 2026
epoch: 1000
next table: 2014
cur table: 2007
epoch: 1000
next table: 1376
cur table: 1366
epoch: 1000
next table: 2009
cur table: 2014
epoch: 1000
next table: 1453
cur table: 1376
epoch: 1000
next table: 2016
cur table: 2009
epoch: 1000
next table: 1366
cur table: 1453
epoch: 1000
next table: 2026
cur table: 2016
epoch: 1000
next table: 1358
cur table: 1366
epoch: 1000
next table: 2012
cur table: 2026
epoch: 1000
next table: 1368
cur table: 1358
epoch: 1000
next table: 2010
cur table: 2012
epoch: 1000
next table: 1375
cur table: 1368
epoch: 1000
next table: 2018
cur table: 2010
epoch: 1000
next table: 1372
cur table: 1375
epoch: 1000
next table: 2025
cur table: 2018
epoch: 1000
next table: 1375
cur table: 1372
epoch: 1000
next table: 2013
cur table: 2025
epoch: 1000
next table: 1380
cur table: 1375
epoch: 1000
next table: 2010
cur table: 2013
epoch: 1000
next table: 1369
cur table: 1380
epoch: 1000
next table: 2018
cur table: 2010
epoch: 1000
next table: 1378
cur table: 1369
epoch: 1000
next table: 2017
cur table: 2018
epoch: 1000
next table: 1383
cur table: 1378
epoch: 1000
next table: 2007
cur table: 2017
epoch: 1000
next table: 1383
cur table: 1383
epoch: 1000
next table: 2017
cur table: 2007
epoch: 1000
next table: 2026
cur table: 2017
epoch: 1000
next table: 1371
cur table: 1383
epoch: 1000
next table: 2010
cur table: 2026
epoch: 1000
next table: 1372
cur table: 1371
epoch: 1000
next table: 2013
cur table: 2010
epoch: 1000
next table: 1373
cur table: 1372
epoch: 1000
next table: 2003
cur table: 2013
epoch: 1000
next table: 1449
cur table: 1373
epoch: 1000
next table: 2012
cur table: 2003
epoch: 1000
next table: 1388
cur table: 1449
epoch: 1000
next table: 2030
cur table: 2012
epoch: 1000
next table: 1368
cur table: 1388
epoch: 1000
next table: 1998
cur table: 2030
epoch: 1000
next table: 1374
cur table: 1368
epoch: 1000
next table: 2013
cur table: 1998
epoch: 1000
next table: 1392
cur table: 1374
epoch: 1000
next table: 2001
cur table: 2013
epoch: 1000
next table: 1367
cur table: 1392
epoch: 1000
next table: 2004
cur table: 2001
epoch: 1000
next table: 1367
cur table: 1367
epoch: 1000
next table: 2016
cur table: 2004
epoch: 1000
next table: 1373
cur table: 1367
epoch: 1000
next table: 2012
cur table: 2016
epoch: 1000
next table: 1384
cur table: 1373
epoch: 1000
next table: 2016
cur table: 2012
epoch: 1000
next table: 2012
cur table: 2016
epoch: 1000
next table: 1356
cur table: 1384
epoch: 1000
next table: 2005
cur table: 2012
epoch: 1000
next table: 1374
cur table: 1356
epoch: 1000
next table: 2009
cur table: 2005
epoch: 1000
next table: 1387
cur table: 1374
epoch: 1000
next table: 2018
cur table: 2009
epoch: 1000
next table: 1360
cur table: 1387
epoch: 1000
next table: 2020
cur table: 2018
epoch: 1000
next table: 1372
cur table: 1360
epoch: 1000
next table: 2009
cur table: 2020
epoch: 1000
next table: 1387
cur table: 1372
epoch: 1000
next table: 2018
cur table: 2009
epoch: 1000
next table: 1458
cur table: 1387
epoch: 1000
next table: 2012
cur table: 2018
epoch: 1000
next table: 1386
cur table: 1458
epoch: 1000
next table: 2018
cur table: 2012
epoch: 1000
next table: 1366
cur table: 1386
epoch: 1000
next table: 2036
cur table: 2018
epoch: 1000
next table: 1352
cur table: 1366
epoch: 1000
next table: 2009
cur table: 2036
epoch: 1000
next table: 1370
cur table: 1352
epoch: 1000
next table: 2020
cur table: 2009
epoch: 1000
next table: 1392
cur table: 1370
epoch: 1000
next table: 2013
cur table: 2020
epoch: 1000
next table: 2015
cur table: 2013
epoch: 1000
next table: 1376
cur table: 1392
epoch: 1000
next table: 2019
cur table: 2015
epoch: 1000
next table: 1380
cur table: 1376
epoch: 1000
next table: 2011
cur table: 2019
epoch: 1000
next table: 1372
cur table: 1380
epoch: 1000
next table: 2012
cur table: 2011
epoch: 1000
next table: 1366
cur table: 1372
epoch: 1000
next table: 2012
cur table: 2012
epoch: 1000
next table: 1371
cur table: 1366
epoch: 1000
next table: 2011
cur table: 2012
epoch: 1000
next table: 1364
cur table: 1371
epoch: 1000
next table: 2014
cur table: 2011
epoch: 1000
next table: 1397
cur table: 1364
epoch: 1000
next table: 2036
cur table: 2014
epoch: 1000
next table: 1387
cur table: 1397
epoch: 1000
next table: 2024
cur table: 2036
epoch: 1000
next table: 1396
cur table: 1387
epoch: 1000
next table: 2011
cur table: 2024
epoch: 1000
next table: 1461
cur table: 1396
epoch: 1000
next table: 2014
cur table: 2011
epoch: 1000
next table: 1380
cur table: 1461
epoch: 1000
next table: 2017
cur table: 2014
epoch: 1000
next table: 1365
cur table: 1380
epoch: 1000
next table: 2029
cur table: 2017
epoch: 1000
next table: 1375
cur table: 1365
epoch: 1000
next table: 2011
cur table: 2029
epoch: 1000
next table: 1385
cur table: 1375
epoch: 1000
next table: 2010
cur table: 2011
epoch: 1000
next table: 2013
cur table: 2010
epoch: 1000
next table: 1362
cur table: 1385
epoch: 1000
next table: 2007
cur table: 2013
epoch: 1000
next table: 1377
cur table: 1362
epoch: 1000
next table: 2030
cur table: 2007
epoch: 1000
next table: 1377
cur table: 1377
epoch: 1000
next table: 2012
cur table: 2030
epoch: 1000
next table: 1361
cur table: 1377
epoch: 1000
next table: 2012
cur table: 2012
epoch: 1000
next table: 1367
cur table: 1361
epoch: 1000
next table: 2019
cur table: 2012
epoch: 1000
next table: 1393
cur table: 1367
epoch: 1000
next table: 2006
cur table: 2019
epoch: 1000
next table: 1373
cur table: 1393
epoch: 1000
next table: 2010
cur table: 2006
epoch: 1000
next table: 1371
cur table: 1373
epoch: 1000
next table: 2020
cur table: 2010
epoch: 1000
next table: 1380
cur table: 1371
epoch: 1000
next table: 2017
cur table: 2020
epoch: 1000
next table: 1359
cur table: 1380
epoch: 1000
next table: 2008
cur table: 2017
epoch: 1000
next table: 1473
cur table: 1359
epoch: 1000
next table: 2000
cur table: 2008
epoch: 1000
next table: 1362
cur table: 1473
epoch: 1000
next table: 2010
cur table: 2000
epoch: 1000
next table: 1385
cur table: 1362
epoch: 1000
next table: 2024
cur table: 2010
epoch: 1000
next table: 2021
cur table: 2024
epoch: 1000
next table: 1358
cur table: 1385
epoch: 1000
next table: 2011
cur table: 2021
epoch: 1000
next table: 1383
cur table: 1358
epoch: 1000
next table: 2020
cur table: 2011
epoch: 1000
next table: 1375
cur table: 1383
epoch: 1000
next table: 2013
cur table: 2020
epoch: 1000
next table: 1378
cur table: 1375
epoch: 1000
next table: 2019
cur table: 2013
epoch: 1000
next table: 1372
cur table: 1378
Heartbeat CPU 0 instructions: 50000001 cycles: 16048517 heartbeat IPC: 3.11583 cumulative IPC: 3.11555 (Simulation time: 0 hr 14 min 33 sec) 

Warmup complete CPU 0 instructions: 50000001 cycles: 16048517 (Simulation time: 0 hr 14 min 33 sec) 

epoch: 1000
next table: 2011
cur table: 2011
epoch: 1000
next table: 1389
cur table: 1408
epoch: 1000
next table: 2017
cur table: 2011
epoch: 1000
next table: 1392
cur table: 1389
epoch: 1000
next table: 2012
cur table: 2017
epoch: 1000
next table: 1404
cur table: 1392
epoch: 1000
next table: 2008
cur table: 2012
epoch: 1000
next table: 1408
cur table: 1404
epoch: 1000
next table: 2028
cur table: 2008
epoch: 1000
next table: 1399
cur table: 1408
epoch: 1000
next table: 2014
cur table: 2028
epoch: 1000
next table: 1405
cur table: 1399
epoch: 1000
next table: 2012
cur table: 2014
epoch: 1000
next table: 1488
cur table: 1405
epoch: 1000
next table: 2008
cur table: 2012
epoch: 1000
next table: 1423
cur table: 1488
epoch: 1000
next table: 2013
cur table: 2008
epoch: 1000
next table: 1399
cur table: 1423
epoch: 1000
next table: 2026
cur table: 2013
epoch: 1000
next table: 1406
cur table: 1399
epoch: 1000
next table: 2025
cur table: 2026
epoch: 1000
next table: 2012
cur table: 2025
epoch: 1000
next table: 1391
cur table: 1406
epoch: 1000
next table: 2007
cur table: 2012
epoch: 1000
next table: 1397
cur table: 1391
epoch: 1000
next table: 2019
cur table: 2007
epoch: 1000
next table: 1397
cur table: 1397
epoch: 1000
next table: 2025
cur table: 2019
epoch: 1000
next table: 1409
cur table: 1397
epoch: 1000
next table: 2014
cur table: 2025
epoch: 1000
next table: 1394
cur table: 1409
epoch: 1000
next table: 2008
cur table: 2014
epoch: 1000
next table: 1394
cur table: 1394
epoch: 1000
next table: 2029
cur table: 2008
epoch: 1000
next table: 1397
cur table: 1394
epoch: 1000
next table: 2009
cur table: 2029
epoch: 1000
next table: 1402
cur table: 1397
epoch: 1000
next table: 2014
cur table: 2009
epoch: 1000
next table: 1419
cur table: 1402
epoch: 1000
next table: 2018
cur table: 2014
epoch: 1000
next table: 1370
cur table: 1419
epoch: 1000
next table: 2026
cur table: 2018
epoch: 1000
next table: 2015
cur table: 2026
epoch: 1000
next table: 1406
cur table: 1370
epoch: 1000
next table: 2003
cur table: 2015
epoch: 1000
next table: 1468
cur table: 1406
epoch: 1000
next table: 2017
cur table: 2003
epoch: 1000
next table: 1420
cur table: 1468
epoch: 1000
next table: 2005
cur table: 2017
epoch: 1000
next table: 1398
cur table: 1420
epoch: 1000
next table: 2030
cur table: 2005
epoch: 1000
next table: 1397
cur table: 1398
epoch: 1000
next table: 2005
cur table: 2030
epoch: 1000
next table: 1377
cur table: 1397
epoch: 1000
next table: 2014
cur table: 2005
epoch: 1000
next table: 1408
cur table: 1377
epoch: 1000
next table: 2001
cur table: 2014
epoch: 1000
next table: 1395
cur table: 1408
epoch: 1000
next table: 2035
cur table: 2001
epoch: 1000
next table: 1410
cur table: 1395
epoch: 1000
next table: 2014
cur table: 2035
epoch: 1000
next table: 1396
cur table: 1410
epoch: 1000
next table: 2006
cur table: 2014
epoch: 1000
next table: 1398
cur table: 1396
epoch: 1000
next table: 2024
cur table: 2006
epoch: 1000
next table: 2018
cur table: 2024
epoch: 1000
next table: 1397
cur table: 1398
epoch: 1000
next table: 2018
cur table: 2018
epoch: 1000
next table: 1404
cur table: 1397
epoch: 1000
next table: 2017
cur table: 2018
epoch: 1000
next table: 1397
cur table: 1404
epoch: 1000
next table: 2018
cur table: 2017
epoch: 1000
next table: 1396
cur table: 1397
epoch: 1000
next table: 2018
cur table: 2018
epoch: 1000
next table: 1407
cur table: 1396
epoch: 1000
next table: 2024
cur table: 2018
epoch: 1000
next table: 1479
cur table: 1407
epoch: 1000
next table: 1996
cur table: 2024
epoch: 1000
next table: 1417
cur table: 1479
epoch: 1000
next table: 2013
cur table: 1996
epoch: 1000
next table: 1413
cur table: 1417
epoch: 1000
next table: 2025
cur table: 2013
epoch: 1000
next table: 1394
cur table: 1413
epoch: 1000
next table: 2014
cur table: 2025
epoch: 1000
next table: 1405
cur table: 1394
epoch: 1000
next table: 2012
cur table: 2014
epoch: 1000
next table: 1387
cur table: 1405
epoch: 1000
next table: 2021
cur table: 2012
epoch: 1000
next table: 1391
cur table: 1387
epoch: 1000
next table: 2011
cur table: 2021
epoch: 1000
next table: 2018
cur table: 2011
epoch: 1000
next table: 1395
cur table: 1391
epoch: 1000
next table: 2020
cur table: 2018
epoch: 1000
next table: 1396
cur table: 1395
epoch: 1000
next table: 2009
cur table: 2020
epoch: 1000
next table: 1387
cur table: 1396
epoch: 1000
next table: 2016
cur table: 2009
epoch: 1000
next table: 1388
cur table: 1387
epoch: 1000
next table: 2014
cur table: 2016
epoch: 1000
next table: 1410
cur table: 1388
epoch: 1000
next table: 2013
cur table: 2014
epoch: 1000
next table: 1404
cur table: 1410
epoch: 1000
next table: 2027
cur table: 2013
epoch: 1000
next table: 1388
cur table: 1404
epoch: 1000
next table: 2016
cur table: 2027
epoch: 1000
next table: 1388
cur table: 1388
epoch: 1000
next table: 2011
cur table: 2016
epoch: 1000
next table: 1483
cur table: 1388
epoch: 1000
next table: 2011
cur table: 2011
epoch: 1000
next table: 1408
cur table: 1483
epoch: 1000
next table: 2007
cur table: 2011
epoch: 1000
next table: 1405
cur table: 1408
epoch: 1000
next table: 2018
cur table: 2007
epoch: 1000
next table: 2030
cur table: 2018
epoch: 1000
next table: 1387
cur table: 1405
epoch: 1000
next table: 2015
cur table: 2030
epoch: 1000
next table: 1389
cur table: 1387
epoch: 1000
next table: 2013
cur table: 2015
epoch: 1000
next table: 1389
cur table: 1389
epoch: 1000
next table: 2019
cur table: 2013
epoch: 1000
next table: 1416
cur table: 1389
epoch: 1000
next table: 2013
cur table: 2019
epoch: 1000
next table: 1398
cur table: 1416
epoch: 1000
next table: 2022
cur table: 2013
epoch: 1000
next table: 1408
cur table: 1398
epoch: 1000
next table: 2010
cur table: 2022
epoch: 1000
next table: 1386
cur table: 1408
epoch: 1000
next table: 2021
cur table: 2010
epoch: 1000
next table: 1397
cur table: 1386
epoch: 1000
next table: 2009
cur table: 2021
epoch: 1000
next table: 1389
cur table: 1397
epoch: 1000
next table: 2011
cur table: 2009
epoch: 1000
next table: 1412
cur table: 1389
epoch: 1000
next table: 2014
cur table: 2011
epoch: 1000
next table: 1393
cur table: 1412
epoch: 1000
next table: 2018
cur table: 2014
epoch: 1000
next table: 2020
cur table: 2018
epoch: 1000
next table: 1401
cur table: 1393
epoch: 1000
next table: 2005
cur table: 2020
epoch: 1000
next table: 1487
cur table: 1401
epoch: 1000
next table: 2019
cur table: 2005
epoch: 1000
next table: 1452
cur table: 1487
epoch: 1000
next table: 2012
cur table: 2019
epoch: 1000
next table: 1438
cur table: 1452
epoch: 1000
next table: 2021
cur table: 2012
epoch: 1000
next table: 1430
cur table: 1438
epoch: 1000
next table: 2023
cur table: 2021
epoch: 1000
next table: 1387
cur table: 1430
epoch: 1000
next table: 2018
cur table: 2023
epoch: 1000
next table: 1405
cur table: 1387
epoch: 1000
next table: 2008
cur table: 2018
epoch: 1000
next table: 1397
cur table: 1405
epoch: 1000
next table: 2027
cur table: 2008
epoch: 1000
next table: 1406
cur table: 1397
epoch: 1000
next table: 2020
cur table: 2027
epoch: 1000
next table: 1391
cur table: 1406
epoch: 1000
next table: 2009
cur table: 2020
epoch: 1000
next table: 1404
cur table: 1391
epoch: 1000
next table: 2019
cur table: 2009
epoch: 1000
next table: 1405
cur table: 1404
epoch: 1000
next table: 2025
cur table: 2019
epoch: 1000
next table: 2021
cur table: 2025
epoch: 1000
next table: 1393
cur table: 1405
epoch: 1000
next table: 2017
cur table: 2021
epoch: 1000
next table: 1406
cur table: 1393
epoch: 1000
next table: 2008
cur table: 2017
epoch: 1000
next table: 1396
cur table: 1406
epoch: 1000
next table: 2024
cur table: 2008
epoch: 1000
next table: 1387
cur table: 1396
epoch: 1000
next table: 2026
cur table: 2024
epoch: 1000
next table: 1466
cur table: 1387
epoch: 1000
next table: 1987
cur table: 2026
epoch: 1000
next table: 1399
cur table: 1466
epoch: 1000
next table: 2014
cur table: 1987
epoch: 1000
next table: 1393
cur table: 1399
epoch: 1000
next table: 2022
cur table: 2014
epoch: 1000
next table: 1398
cur table: 1393
epoch: 1000
next table: 2029
cur table: 2022
epoch: 1000
next table: 1409
cur table: 1398
epoch: 1000
next table: 2015
cur table: 2029
epoch: 1000
next table: 1403
cur table: 1409
epoch: 1000
next table: 2007
cur table: 2015
epoch: 1000
next table: 1402
cur table: 1403
epoch: 1000
next table: 2008
cur table: 2007
epoch: 1000
next table: 1397
cur table: 1402
epoch: 1000
next table: 2012
cur table: 2008
epoch: 1000
next table: 2018
cur table: 2012
epoch: 1000
next table: 1393
cur table: 1397
epoch: 1000
next table: 2005
cur table: 2018
epoch: 1000
next table: 1403
cur table: 1393
epoch: 1000
next table: 2017
cur table: 2005
epoch: 1000
next table: 1387
cur table: 1403
epoch: 1000
next table: 2014
cur table: 2017
epoch: 1000
next table: 1406
cur table: 1387
epoch: 1000
next table: 2011
cur table: 2014
epoch: 1000
next table: 1394
cur table: 1406
epoch: 1000
next table: 2009
cur table: 2011
epoch: 1000
next table: 1386
cur table: 1394
epoch: 1000
next table: 2033
cur table: 2009
epoch: 1000
next table: 1396
cur table: 1386
epoch: 1000
next table: 2016
cur table: 2033
epoch: 1000
next table: 1488
cur table: 1396
epoch: 1000
next table: 2007
cur table: 2016
epoch: 1000
next table: 1396
cur table: 1488
epoch: 1000
next table: 2011
cur table: 2007
epoch: 1000
next table: 1402
cur table: 1396
epoch: 1000
next table: 2006
cur table: 2011
epoch: 1000
next table: 1394
cur table: 1402
epoch: 1000
next table: 2025
cur table: 2006
epoch: 1000
next table: 2002
cur table: 2025
epoch: 1000
next table: 1391
cur table: 1394
epoch: 1000
next table: 2011
cur table: 2002
epoch: 1000
next table: 1384
cur table: 1391
epoch: 1000
next table: 2017
cur table: 2011
epoch: 1000
next table: 1416
cur table: 1384
epoch: 1000
next table: 2009
cur table: 2017
epoch: 1000
next table: 1390
cur table: 1416
epoch: 1000
next table: 2027
cur table: 2009
epoch: 1000
next table: 1396
cur table: 1390
epoch: 1000
next table: 2010
cur table: 2027
epoch: 1000
next table: 1401
cur table: 1396
epoch: 1000
next table: 2019
cur table: 2010
epoch: 1000
next table: 1392
cur table: 1401
epoch: 1000
next table: 2018
cur table: 2019
epoch: 1000
next table: 1386
cur table: 1392
epoch: 1000
next table: 2008
cur table: 2018
epoch: 1000
next table: 1397
cur table: 1386
epoch: 1000
next table: 2007
cur table: 2008
epoch: 1000
next table: 1397
cur table: 1397
epoch: 1000
next table: 2016
cur table: 2007
epoch: 1000
next table: 1419
cur table: 1397
epoch: 1000
next table: 2021
cur table: 2016
epoch: 1000
next table: 1476
cur table: 1419
epoch: 1000
next table: 2010
cur table: 2021
epoch: 1000
next table: 2011
cur table: 2010
epoch: 1000
next table: 1392
cur table: 1476
epoch: 1000
next table: 2012
cur table: 2011
epoch: 1000
next table: 1398
cur table: 1392
epoch: 1000
next table: 2019
cur table: 2012
epoch: 1000
next table: 1394
cur table: 1398
epoch: 1000
next table: 2024
cur table: 2019
epoch: 1000
next table: 1390
cur table: 1394
epoch: 1000
next table: 2013
cur table: 2024
epoch: 1000
next table: 1381
cur table: 1390
epoch: 1000
next table: 2011
cur table: 2013
epoch: 1000
next table: 1393
cur table: 1381
epoch: 1000
next table: 2011
cur table: 2011
epoch: 1000
next table: 1404
cur table: 1393
epoch: 1000
next table: 2021
cur table: 2011
epoch: 1000
next table: 1387
cur table: 1404
epoch: 1000
next table: 2020
cur table: 2021
Heartbeat CPU 0 instructions: 60000002 cycles: 25798680 heartbeat IPC: 1.02562 cumulative IPC: 1.02562 (Simulation time: 0 hr 17 min 27 sec) 
epoch: 1000
next table: 1403
cur table: 1387
epoch: 1000
next table: 2010
cur table: 2020
epoch: 1000
next table: 1404
cur table: 1403
epoch: 1000
next table: 2014
cur table: 2010
epoch: 1000
next table: 1394
cur table: 1404
epoch: 1000
next table: 2022
cur table: 2014
epoch: 1000
next table: 2010
cur table: 2022
epoch: 1000
next table: 1402
cur table: 1394
epoch: 1000
next table: 2019
cur table: 2010
epoch: 1000
next table: 1403
cur table: 1402
epoch: 1000
next table: 2047
cur table: 2019
epoch: 1000
next table: 1383
cur table: 1403
epoch: 1000
next table: 2052
cur table: 2047
epoch: 1000
next table: 1491
cur table: 1383
epoch: 1000
next table: 1996
cur table: 2052
epoch: 1000
next table: 1384
cur table: 1491
epoch: 1000
next table: 2013
cur table: 1996
epoch: 1000
next table: 1391
cur table: 1384
epoch: 1000
next table: 2010
cur table: 2013
epoch: 1000
next table: 1407
cur table: 1391
epoch: 1000
next table: 2021
cur table: 2010
epoch: 1000
next table: 1384
cur table: 1407
epoch: 1000
next table: 2020
cur table: 2021
epoch: 1000
next table: 1400
cur table: 1384
epoch: 1000
next table: 2013
cur table: 2020
epoch: 1000
next table: 1403
cur table: 1400
epoch: 1000
next table: 2030
cur table: 2013
epoch: 1000
next table: 1403
cur table: 1403
epoch: 1000
next table: 2017
cur table: 2030
epoch: 1000
next table: 1398
cur table: 1403
epoch: 1000
next table: 2029
cur table: 2017
epoch: 1000
next table: 1396
cur table: 1398
epoch: 1000
next table: 2015
cur table: 2029
epoch: 1000
next table: 2024
cur table: 2015
epoch: 1000
next table: 1395
cur table: 1396
epoch: 1000
next table: 2008
cur table: 2024
epoch: 1000
next table: 1400
cur table: 1395
epoch: 1000
next table: 2012
cur table: 2008
epoch: 1000
next table: 1401
cur table: 1400
epoch: 1000
next table: 2008
cur table: 2012
epoch: 1000
next table: 1396
cur table: 1401
epoch: 1000
next table: 2026
cur table: 2008
epoch: 1000
next table: 1399
cur table: 1396
epoch: 1000
next table: 2036
cur table: 2026
epoch: 1000
next table: 1463
cur table: 1399
epoch: 1000
next table: 2001
cur table: 2036
epoch: 1000
next table: 1395
cur table: 1463
epoch: 1000
next table: 2018
cur table: 2001
epoch: 1000
next table: 1395
cur table: 1395
epoch: 1000
next table: 2009
cur table: 2018
epoch: 1000
next table: 1398
cur table: 1395
epoch: 1000
next table: 2019
cur table: 2009
epoch: 1000
next table: 1390
cur table: 1398
epoch: 1000
next table: 2034
cur table: 2019
epoch: 1000
next table: 1384
cur table: 1390
epoch: 1000
next table: 2037
cur table: 2034
epoch: 1000
next table: 1389
cur table: 1384
epoch: 1000
next table: 2031
cur table: 2037
epoch: 1000
next table: 2040
cur table: 2031
epoch: 1000
next table: 1402
cur table: 1389
epoch: 1000
next table: 2021
cur table: 2040
epoch: 1000
next table: 1401
cur table: 1402
epoch: 1000
next table: 2021
cur table: 2021
epoch: 1000
next table: 1404
cur table: 1401
epoch: 1000
next table: 2014
cur table: 2021
epoch: 1000
next table: 1384
cur table: 1404
epoch: 1000
next table: 2013
cur table: 2014
epoch: 1000
next table: 1391
cur table: 1384
epoch: 1000
next table: 2005
cur table: 2013
epoch: 1000
next table: 1392
cur table: 1391
epoch: 1000
next table: 2014
cur table: 2005
epoch: 1000
next table: 1412
cur table: 1392
epoch: 1000
next table: 2018
cur table: 2014
epoch: 1000
next table: 1394
cur table: 1412
epoch: 1000
next table: 2020
cur table: 2018
epoch: 1000
next table: 1488
cur table: 1394
epoch: 1000
next table: 2010
cur table: 2020
epoch: 1000
next table: 1385
cur table: 1488
epoch: 1000
next table: 2011
cur table: 2010
epoch: 1000
next table: 1386
cur table: 1385
epoch: 1000
next table: 2015
cur table: 2011
epoch: 1000
next table: 1406
cur table: 1386
epoch: 1000
next table: 2037
cur table: 2015
epoch: 1000
next table: 2038
cur table: 2037
epoch: 1000
next table: 1399
cur table: 1406
epoch: 1000
next table: 2012
cur table: 2038
epoch: 1000
next table: 1407
cur table: 1399
epoch: 1000
next table: 2013
cur table: 2012
epoch: 1000
next table: 1415
cur table: 1407
epoch: 1000
next table: 2011
cur table: 2013
epoch: 1000
next table: 1383
cur table: 1415
epoch: 1000
next table: 2007
cur table: 2011
epoch: 1000
next table: 1404
cur table: 1383
epoch: 1000
next table: 2032
cur table: 2007
epoch: 1000
next table: 1404
cur table: 1404
epoch: 1000
next table: 2012
cur table: 2032
epoch: 1000
next table: 1382
cur table: 1404
epoch: 1000
next table: 2030
cur table: 2012
epoch: 1000
next table: 1392
cur table: 1382
epoch: 1000
next table: 2011
cur table: 2030
epoch: 1000
next table: 1388
cur table: 1392
epoch: 1000
next table: 2011
cur table: 2011
epoch: 1000
next table: 1424
cur table: 1388
epoch: 1000
next table: 2008
cur table: 2011
epoch: 1000
next table: 1388
cur table: 1424
epoch: 1000
next table: 2026
cur table: 2008
epoch: 1000
next table: 1469
cur table: 1388
epoch: 1000
next table: 2018
cur table: 2026
epoch: 1000
next table: 2000
cur table: 2018
epoch: 1000
next table: 1409
cur table: 1469
epoch: 1000
next table: 2008
cur table: 2000
epoch: 1000
next table: 1394
cur table: 1409
epoch: 1000
next table: 2016
cur table: 2008
epoch: 1000
next table: 1392
cur table: 1394
epoch: 1000
next table: 2018
cur table: 2016
epoch: 1000
next table: 1390
cur table: 1392
epoch: 1000
next table: 2021
cur table: 2018
epoch: 1000
next table: 1410
cur table: 1390
epoch: 1000
next table: 2005
cur table: 2021
epoch: 1000
next table: 1412
cur table: 1410
epoch: 1000
next table: 2013
cur table: 2005
epoch: 1000
next table: 1408
cur table: 1412
epoch: 1000
next table: 2016
cur table: 2013
epoch: 1000
next table: 1415
cur table: 1408
epoch: 1000
next table: 2015
cur table: 2016
epoch: 1000
next table: 1395
cur table: 1415
epoch: 1000
next table: 2020
cur table: 2015
epoch: 1000
next table: 1389
cur table: 1395
epoch: 1000
next table: 2011
cur table: 2020
epoch: 1000
next table: 1385
cur table: 1389
epoch: 1000
next table: 2018
cur table: 2011
epoch: 1000
next table: 1383
cur table: 1385
epoch: 1000
next table: 2011
cur table: 2018
epoch: 1000
next table: 2008
cur table: 2011
epoch: 1000
next table: 1400
cur table: 1383
epoch: 1000
next table: 2005
cur table: 2008
epoch: 1000
next table: 1407
cur table: 1400
epoch: 1000
next table: 2036
cur table: 2005
epoch: 1000
next table: 1459
cur table: 1407
epoch: 1000
next table: 2005
cur table: 2036
epoch: 1000
next table: 1430
cur table: 1459
epoch: 1000
next table: 2012
cur table: 2005
epoch: 1000
next table: 1395
cur table: 1430
epoch: 1000
next table: 2026
cur table: 2012
epoch: 1000
next table: 1413
cur table: 1395
epoch: 1000
next table: 2015
cur table: 2026
epoch: 1000
next table: 1400
cur table: 1413
epoch: 1000
next table: 2027
cur table: 2015
epoch: 1000
next table: 1389
cur table: 1400
epoch: 1000
next table: 2019
cur table: 2027
epoch: 1000
next table: 1374
cur table: 1389
epoch: 1000
next table: 2015
cur table: 2019
epoch: 1000
next table: 1393
cur table: 1374
epoch: 1000
next table: 2007
cur table: 2015
epoch: 1000
next table: 1388
cur table: 1393
epoch: 1000
next table: 2008
cur table: 2007
epoch: 1000
next table: 2022
cur table: 2008
epoch: 1000
next table: 1406
cur table: 1388
epoch: 1000
next table: 2016
cur table: 2022
epoch: 1000
next table: 1394
cur table: 1406
epoch: 1000
next table: 2004
cur table: 2016
epoch: 1000
next table: 1385
cur table: 1394
epoch: 1000
next table: 2019
cur table: 2004
epoch: 1000
next table: 1393
cur table: 1385
epoch: 1000
next table: 2005
cur table: 2019
epoch: 1000
next table: 1389
cur table: 1393
epoch: 1000
next table: 2012
cur table: 2005
epoch: 1000
next table: 1402
cur table: 1389
epoch: 1000
next table: 2020
cur table: 2012
epoch: 1000
next table: 1464
cur table: 1402
epoch: 1000
next table: 2023
cur table: 2020
epoch: 1000
next table: 1419
cur table: 1464
epoch: 1000
next table: 2014
cur table: 2023
epoch: 1000
next table: 1400
cur table: 1419
epoch: 1000
next table: 2013
cur table: 2014
epoch: 1000
next table: 1404
cur table: 1400
epoch: 1000
next table: 2017
cur table: 2013
epoch: 1000
next table: 1403
cur table: 1404
epoch: 1000
next table: 2020
cur table: 2017
epoch: 1000
next table: 2012
cur table: 2020
epoch: 1000
next table: 1393
cur table: 1403
epoch: 1000
next table: 2017
cur table: 2012
epoch: 1000
next table: 1397
cur table: 1393
epoch: 1000
next table: 2012
cur table: 2017
epoch: 1000
next table: 1388
cur table: 1397
epoch: 1000
next table: 2026
cur table: 2012
epoch: 1000
next table: 1404
cur table: 1388
epoch: 1000
next table: 2022
cur table: 2026
epoch: 1000
next table: 1391
cur table: 1404
epoch: 1000
next table: 2014
cur table: 2022
epoch: 1000
next table: 1399
cur table: 1391
epoch: 1000
next table: 2018
cur table: 2014
epoch: 1000
next table: 1438
cur table: 1399
epoch: 1000
next table: 2014
cur table: 2018
epoch: 1000
next table: 1383
cur table: 1438
epoch: 1000
next table: 2023
cur table: 2014
epoch: 1000
next table: 1396
cur table: 1383
epoch: 1000
next table: 1998
cur table: 2023
epoch: 1000
next table: 1394
cur table: 1396
epoch: 1000
next table: 2019
cur table: 1998
epoch: 1000
next table: 1442
cur table: 1394
epoch: 1000
next table: 2029
cur table: 2019
epoch: 1000
next table: 1432
cur table: 1442
epoch: 1000
next table: 2006
cur table: 2029
epoch: 1000
next table: 2006
cur table: 2006
epoch: 1000
next table: 1394
cur table: 1432
epoch: 1000
next table: 2023
cur table: 2006
epoch: 1000
next table: 1405
cur table: 1394
epoch: 1000
next table: 2020
cur table: 2023
epoch: 1000
next table: 1399
cur table: 1405
epoch: 1000
next table: 2020
cur table: 2020
epoch: 1000
next table: 1400
cur table: 1399
epoch: 1000
next table: 2004
cur table: 2020
epoch: 1000
next table: 1402
cur table: 1400
epoch: 1000
next table: 2011
cur table: 2004
epoch: 1000
next table: 1406
cur table: 1402
epoch: 1000
next table: 2015
cur table: 2011
epoch: 1000
next table: 1408
cur table: 1406
epoch: 1000
next table: 2021
cur table: 2015
epoch: 1000
next table: 1406
cur table: 1408
epoch: 1000
next table: 2030
cur table: 2021
epoch: 1000
next table: 1384
cur table: 1406
epoch: 1000
next table: 2004
cur table: 2030
epoch: 1000
next table: 1406
cur table: 1384
epoch: 1000
next table: 2019
cur table: 2004
epoch: 1000
next table: 1399
cur table: 1406
epoch: 1000
next table: 2014
cur table: 2019
epoch: 1000
next table: 1396
cur table: 1399
epoch: 1000
next table: 2012
cur table: 2014
epoch: 1000
next table: 2008
cur table: 2012
epoch: 1000
next table: 1398
cur table: 1396
epoch: 1000
next table: 2025
cur table: 2008
epoch: 1000
next table: 1394
cur table: 1398
epoch: 1000
next table: 2008
cur table: 2025
epoch: 1000
next table: 1480
cur table: 1394
epoch: 1000
next table: 2022
cur table: 2008
epoch: 1000
next table: 1392
cur table: 1480
epoch: 1000
next table: 2024
cur table: 2022
epoch: 1000
next table: 1416
cur table: 1392
epoch: 1000
next table: 2014
cur table: 2024
epoch: 1000
next table: 1401
cur table: 1416
epoch: 1000
next table: 2025
cur table: 2014
epoch: 1000
next table: 1394
cur table: 1401
epoch: 1000
next table: 2022
cur table: 2025
epoch: 1000
next table: 1407
cur table: 1394
epoch: 1000
next table: 2011
cur table: 2022
epoch: 1000
next table: 1411
cur table: 1407
epoch: 1000
next table: 2021
cur table: 2011
epoch: 1000
next table: 1392
cur table: 1411
epoch: 1000
next table: 2010
cur table: 2021
epoch: 1000
next table: 1384
cur table: 1392
epoch: 1000
next table: 2027
cur table: 2010
epoch: 1000
[...]
next table: 2011
cur table: 2017
epoch: 1000
next table: 1403
cur table: 1393
epoch: 1000
next table: 2015
cur table: 2011
epoch: 1000
next table: 1394
cur table: 1403
epoch: 1000
next table: 2014
cur table: 2015
epoch: 1000
next table: 1409
cur table: 1394
epoch: 1000
next table: 2022
cur table: 2014
epoch: 1000
next table: 1391
cur table: 1409
epoch: 1000
next table: 2013
cur table: 2022
epoch: 1000
next table: 1390
cur table: 1391
epoch: 1000
next table: 2019
cur table: 2013
epoch: 1000
next table: 1406
cur table: 1390
epoch: 1000
next table: 2018
cur table: 2019
epoch: 1000
next table: 1404
cur table: 1406
epoch: 1000
next table: 2050
cur table: 2018
epoch: 1000
next table: 1381
cur table: 1404
epoch: 1000
next table: 2025
cur table: 2050
epoch: 1000
next table: 1405
cur table: 1381
epoch: 1000
next table: 2012
cur table: 2025
epoch: 1000
next table: 1380
cur table: 1405
epoch: 1000
next table: 2016
cur table: 2012
epoch: 1000
next table: 1457
cur table: 1380
epoch: 1000
next table: 2011
cur table: 2016
epoch: 1000
next table: 1438
cur table: 1457
epoch: 1000
next table: 2013
cur table: 2011
epoch: 1000
next table: 2032
cur table: 2013
epoch: 1000
next table: 1393
cur table: 1438
epoch: 1000
next table: 2020
cur table: 2032
epoch: 1000
next table: 1393
cur table: 1393
epoch: 1000
next table: 2013
cur table: 2020
epoch: 1000
next table: 1400
cur table: 1393
epoch: 1000
next table: 2014
cur table: 2013
epoch: 1000
next table: 1399
cur table: 1400
epoch: 1000
next table: 2007
cur table: 2014
epoch: 1000
next table: 1402
cur table: 1399
epoch: 1000
next table: 2011
cur table: 2007
epoch: 1000
next table: 1400
cur table: 1402
epoch: 1000
next table: 2031
cur table: 2011
epoch: 1000
next table: 1410
cur table: 1400
epoch: 1000
next table: 2012
cur table: 2031
epoch: 1000
next table: 1398
cur table: 1410
epoch: 1000
next table: 2016
cur table: 2012
epoch: 1000
next table: 1385
cur table: 1398
epoch: 1000
next table: 2019
cur table: 2016
epoch: 1000
next table: 1392
cur table: 1385
epoch: 1000
next table: 2034
cur table: 2019
epoch: 1000
next table: 1393
cur table: 1392
epoch: 1000
next table: 2034
cur table: 2034
epoch: 1000
next table: 1390
cur table: 1393
epoch: 1000
next table: 2007
cur table: 2034
epoch: 1000
next table: 2016
cur table: 2007
epoch: 1000
next table: 1389
cur table: 1390
Heartbeat CPU 0 instructions: 100000002 cycles: 64796134 heartbeat IPC: 1.02602 cumulative IPC: 1.02569 (Simulation time: 0 hr 26 min 47 sec) 
Finished CPU 0 instructions: 50000001 cycles: 48747617 cumulative IPC: 1.02569 (Simulation time: 0 hr 26 min 47 sec) 

ChampSim completed all CPUs

Region of Interest Statistics

CPU 0 cumulative IPC: 1.02569 instructions: 50000001 cycles: 48747617
ITLB TOTAL     ACCESS:    6704020  HIT:    6704020  MISS:          0  HIT %:        100  MISS %:          0   MPKI: 0
ITLB LOAD TRANSLATION ACCESS:    6704020  HIT:    6704020  MISS:          0  HIT %:        100  MISS %:          0   MPKI: 0
ITLB PREFETCH  REQUESTED:          0  ISSUED:          0  USEFUL:          0  USELESS:          0
ITLB USEFUL LOAD PREFETCHES:          0 PREFETCH ISSUED TO LOWER LEVEL:          0  ACCURACY: -nan
ITLB TIMELY PREFETCHES:          0 LATE PREFETCHES: 0 DROPPED PREFETCHES: 0
ITLB PREFETCHES SAME FILL-ORIGIN LEVEL: 0 DIFFERENT FILL-ORIGIN LEVEL: 0
ITLB AVERAGE MISS LATENCY: -nan cycles
ITLB RQ	ACCESS:    8361617	FORWARD:          0	MERGED:    1657598	TO_CACHE:    6704019

Revised Interactions: positive negative neutral
ITLB_interactions 0 0 0 -nan -nan -nan
DTLB TOTAL     ACCESS:   12902634  HIT:   12882808  MISS:      19826  HIT %:    99.8463  MISS %:   0.153659   MPKI: 0.39652
DTLB LOAD TRANSLATION ACCESS:   12902634  HIT:   12882808  MISS:      19826  HIT %:    99.8463  MISS %:   0.153659   MPKI: 0.39652
DTLB PREFETCH  REQUESTED:          0  ISSUED:          0  USEFUL:          0  USELESS:          0
DTLB USEFUL LOAD PREFETCHES:          0 PREFETCH ISSUED TO LOWER LEVEL:          0  ACCURACY: -nan
DTLB TIMELY PREFETCHES:          0 LATE PREFETCHES: 0 DROPPED PREFETCHES: 0
DTLB PREFETCHES SAME FILL-ORIGIN LEVEL: 0 DIFFERENT FILL-ORIGIN LEVEL: 0
DTLB AVERAGE MISS LATENCY: 469.923 cycles
DTLB RQ	ACCESS:   14076438	FORWARD:          0	MERGED:    1170245	TO_CACHE:   12906193

Revised Interactions: positive negative neutral
DTLB_interactions 0 0 0 -nan -nan -nan
STLB TOTAL     ACCESS:      19826  HIT:       3395  MISS:      16431  HIT %:     17.124  MISS %:     82.876   MPKI: 0.32862
STLB LOAD TRANSLATION ACCESS:      19826  HIT:       3395  MISS:      16431  HIT %:     17.124  MISS %:     82.876   MPKI: 0.32862
STLB PREFETCH  REQUESTED:          0  ISSUED:          0  USEFUL:          0  USELESS:          0
STLB USEFUL LOAD PREFETCHES:          0 PREFETCH ISSUED TO LOWER LEVEL:          0  ACCURACY: -nan
STLB TIMELY PREFETCHES:          0 LATE PREFETCHES: 0 DROPPED PREFETCHES: 0
STLB PREFETCHES SAME FILL-ORIGIN LEVEL: 0 DIFFERENT FILL-ORIGIN LEVEL: 0
STLB AVERAGE MISS LATENCY: 554.972 cycles
STLB RQ	ACCESS:      19826	FORWARD:          0	MERGED:          0	TO_CACHE:      19826

Revised Interactions: positive negative neutral
STLB_interactions 0 0 0 -nan -nan -nan
STLB Hit, L1D data hit: 0
STLB Hit, L2C data hit: 0
STLB Hit, LLC data hit: 0
STLB Hit, LLC data miss: 0
STLB STLB hints to L2: 0
L1D TOTAL     ACCESS:   13901041  HIT:   13254658  MISS:     646383  HIT %:    95.3501  MISS %:    4.64989   MPKI: 12.9277
L1D LOAD      ACCESS:   12226586  HIT:   11585413  MISS:     641173  HIT %:    94.7559  MISS %:    5.24409   MPKI: 12.8235
L1D RFO       ACCESS:    1674455  HIT:    1669245  MISS:       5210  HIT %:    99.6889  MISS %:   0.311146   MPKI: 0.1042
L1D PREFETCH  REQUESTED:          0  ISSUED:          0  USEFUL:          0  USELESS:          0
L1D USEFUL LOAD PREFETCHES:          0 PREFETCH ISSUED TO LOWER LEVEL:          0  ACCURACY: -nan
L1D TIMELY PREFETCHES:          0 LATE PREFETCHES: 0 DROPPED PREFETCHES: 0
L1D PREFETCHES SAME FILL-ORIGIN LEVEL: 0 DIFFERENT FILL-ORIGIN LEVEL: 0
L1D AVERAGE MISS LATENCY: 35.4718 cycles
L1D RQ	ACCESS:   19112559	FORWARD:          0	MERGED:    6735980	TO_CACHE:   12376570
L1D WQ	ACCESS:    1699868	FORWARD:          9	MERGED:          0	TO_CACHE:    1699868

Revised Interactions: positive negative neutral
L1D_interactions 0 0 0 -nan -nan -nan
L1D UNIQUE REGIONS ACCESSED: 0
L1D REGIONS CONFLICTS: 0
L1D Cross Page Prefetch Requests: 0
L1D Same Page Prefetch Requests: 0
L1D ROI Sum of L1D PQ occupancy: 0
L1D PREFETCHES PUSHED FROM L2C: 0
L1I TOTAL     ACCESS:    8361619  HIT:    8361619  MISS:          0  HIT %:        100  MISS %:          0   MPKI: 0
L1I LOAD      ACCESS:    8361619  HIT:    8361619  MISS:          0  HIT %:        100  MISS %:          0   MPKI: 0
L1I PREFETCH  REQUESTED:          0  ISSUED:          0  USEFUL:          0  USELESS:          0
L1I USEFUL LOAD PREFETCHES:          0 PREFETCH ISSUED TO LOWER LEVEL:          0  ACCURACY: -nan
L1I TIMELY PREFETCHES:          0 LATE PREFETCHES: 0 DROPPED PREFETCHES: 0
L1I PREFETCHES SAME FILL-ORIGIN LEVEL: 0 DIFFERENT FILL-ORIGIN LEVEL: 0
L1I AVERAGE MISS LATENCY: -nan cycles
L1I RQ	ACCESS:   13388920	FORWARD:          0	MERGED:    5027303	TO_CACHE:    8361617

Revised Interactions: positive negative neutral
L1I_interactions 0 0 0 -nan -nan -nan
BTB TOTAL     ACCESS:    2491689  HIT:    2491678  MISS:         11  HIT %:    99.9996  MISS %: 0.000441468   MPKI: 0.00022
BTB BRANCH_DIRECT_JUMP	ACCESS:         40  HIT:         39  MISS:          1
BTB BRANCH_INDIRECT	ACCESS:          0  HIT:          0  MISS:          0
BTB BRANCH_CONDITIONAL	ACCESS:    2491569  HIT:    2491561  MISS:          8
BTB BRANCH_DIRECT_CALL	ACCESS:         40  HIT:         39  MISS:          1
BTB BRANCH_INDIRECT_CALL	ACCESS:          0  HIT:          0  MISS:          0
BTB BRANCH_RETURN	ACCESS:         40  HIT:         39  MISS:          1
BTB BRANCH_OTHER ACCESS:          0  HIT:          0  MISS:          0

L2C TOTAL     ACCESS:    1108508  HIT:     443394  MISS:     665114  HIT %:    39.9992  MISS %:    60.0008   MPKI: 13.3023
L2C LOAD      ACCESS:     641171  HIT:     414247  MISS:     226924  HIT %:    64.6079  MISS %:    35.3921   MPKI: 4.53848
L2C DATA LOAD MPKI: 4.53848
L2C INSTRUCTION LOAD MPKI: 0
L2C RFO       ACCESS:       5210  HIT:          0  MISS:       5210  HIT %:          0  MISS %:        100   MPKI: 0.1042
L2C PREFETCH  ACCESS:     429401  HIT:      14689  MISS:     414712  HIT %:    3.42081  MISS %:    96.5792   MPKI: 8.29424
L2C DATA PREFETCH MPKI: 8.29424
L2C INSTRUCTION PREFETCH MPKI: 0
L2C WRITEBACK ACCESS:       8074  HIT:       3159  MISS:       4915  HIT %:    39.1256  MISS %:    60.8744   MPKI: 0.0983
L2C LOAD TRANSLATION ACCESS:      24652  HIT:      11299  MISS:      13353  HIT %:     45.834  MISS %:     54.166   MPKI: 0.26706
L2C PREFETCH  REQUESTED:    3248508  ISSUED:    2712691  USEFUL:     407755  USELESS:       6949
L2C USEFUL LOAD PREFETCHES:     407755 PREFETCH ISSUED TO LOWER LEVEL:    2692448  ACCURACY: 15.1444
L2C TIMELY PREFETCHES:     407755 LATE PREFETCHES: 272 DROPPED PREFETCHES: 0
L2C PREFETCHES SAME FILL-ORIGIN LEVEL: 414984 DIFFERENT FILL-ORIGIN LEVEL: 2277464
L2C AVERAGE MISS LATENCY: 43.8735 cycles
L2C RQ	ACCESS:     671034	FORWARD:          0	MERGED:          0	TO_CACHE:     671033
L2C WQ	ACCESS:       8074	FORWARD:          1	MERGED:          0	TO_CACHE:       8074
L2C PQ	ACCESS:    2712691	FORWARD:          0	MERGED:       4063	TO_CACHE:    2708628

Revised Interactions: positive negative neutral
L2C_interactions 405226 6821 4334 97.321 1.63816 1.04087
L2C Instructions Evicting Data 0
L2C Translations Evicting Data 13083
L2C Data Evicting Data 633861
L2C Instructions Evicting Instructions 0
L2C Translations Evicting Instructions 0
L2C Data Evicting Instructions 0
L2C Instructions Evicting Translations 0
L2C Translations Evicting Translations 270
L2C Data Evicting Translations 12985
L2C Dense regions hint from L2: 0
PSCL5 TOTAL     ACCESS:      16431  HIT:      16431  MISS:          0  HIT %:        100  MISS %:          0   MPKI: 0
PSCL5 LOAD TRANSLATION ACCESS:      16431  HIT:      16431  MISS:          0  HIT %:        100  MISS %:          0   MPKI: 0
PSCL5 PREFETCH  REQUESTED:          0  ISSUED:          0  USEFUL:          0  USELESS:          0
PSCL5 USEFUL LOAD PREFETCHES:          0 PREFETCH ISSUED TO LOWER LEVEL:          0  ACCURACY: -nan
PSCL5 TIMELY PREFETCHES:          0 LATE PREFETCHES: 0 DROPPED PREFETCHES: 0
PSCL5 PREFETCHES SAME FILL-ORIGIN LEVEL: 0 DIFFERENT FILL-ORIGIN LEVEL: 0

Revised Interactions: positive negative neutral
PSCL5_interactions 0 0 0 -nan -nan -nan
PSCL4 TOTAL     ACCESS:      16431  HIT:      16431  MISS:          0  HIT %:        100  MISS %:          0   MPKI: 0
PSCL4 LOAD TRANSLATION ACCESS:      16431  HIT:      16431  MISS:          0  HIT %:        100  MISS %:          0   MPKI: 0
PSCL4 PREFETCH  REQUESTED:          0  ISSUED:          0  USEFUL:          0  USELESS:          0
PSCL4 USEFUL LOAD PREFETCHES:          0 PREFETCH ISSUED TO LOWER LEVEL:          0  ACCURACY: -nan
PSCL4 TIMELY PREFETCHES:          0 LATE PREFETCHES: 0 DROPPED PREFETCHES: 0
PSCL4 PREFETCHES SAME FILL-ORIGIN LEVEL: 0 DIFFERENT FILL-ORIGIN LEVEL: 0

Revised Interactions: positive negative neutral
PSCL4_interactions 0 0 0 -nan -nan -nan
PSCL3 TOTAL     ACCESS:      16431  HIT:      16419  MISS:         12  HIT %:     99.927  MISS %:  0.0730327   MPKI: 0.00024
PSCL3 LOAD TRANSLATION ACCESS:      16431  HIT:      16419  MISS:         12  HIT %:     99.927  MISS %:  0.0730327   MPKI: 0.00024
PSCL3 PREFETCH  REQUESTED:          0  ISSUED:          0  USEFUL:          0  USELESS:          0
PSCL3 USEFUL LOAD PREFETCHES:          0 PREFETCH ISSUED TO LOWER LEVEL:          0  ACCURACY: -nan
PSCL3 TIMELY PREFETCHES:          0 LATE PREFETCHES: 0 DROPPED PREFETCHES: 0
PSCL3 PREFETCHES SAME FILL-ORIGIN LEVEL: 0 DIFFERENT FILL-ORIGIN LEVEL: 0

Revised Interactions: positive negative neutral
PSCL3_interactions 0 0 0 -nan -nan -nan
PSCL2 TOTAL     ACCESS:      16431  HIT:       8156  MISS:       8275  HIT %:    49.6379  MISS %:    50.3621   MPKI: 0.1655
PSCL2 LOAD TRANSLATION ACCESS:      16431  HIT:       8156  MISS:       8275  HIT %:    49.6379  MISS %:    50.3621   MPKI: 0.1655
PSCL2 PREFETCH  REQUESTED:          0  ISSUED:          0  USEFUL:          0  USELESS:          0
PSCL2 USEFUL LOAD PREFETCHES:          0 PREFETCH ISSUED TO LOWER LEVEL:          0  ACCURACY: -nan
PSCL2 TIMELY PREFETCHES:          0 LATE PREFETCHES: 0 DROPPED PREFETCHES: 0
PSCL2 PREFETCHES SAME FILL-ORIGIN LEVEL: 0 DIFFERENT FILL-ORIGIN LEVEL: 0

Revised Interactions: positive negative neutral
PSCL2_interactions 0 0 0 -nan -nan -nan
LLC TOTAL     ACCESS:    2938877  HIT:    2326435  MISS:     612442  HIT %:    79.1607  MISS %:    20.8393   MPKI: 12.2488
LLC LOAD      ACCESS:     226652  HIT:     177216  MISS:      49436  HIT %:    78.1886  MISS %:    21.8114   MPKI: 0.98872
LLC RFO       ACCESS:       5210  HIT:         45  MISS:       5165  HIT %:   0.863724  MISS %:    99.1363   MPKI: 0.1033
LLC PREFETCH  ACCESS:    2688204  HIT:    2142019  MISS:     546185  HIT %:    79.6822  MISS %:    20.3178   MPKI: 10.9237
LLC WRITEBACK ACCESS:       5458  HIT:       1156  MISS:       4302  HIT %:    21.1799  MISS %:    78.8201   MPKI: 0.08604
LLC LOAD TRANSLATION ACCESS:      13353  HIT:       5999  MISS:       7354  HIT %:    44.9262  MISS %:    55.0738   MPKI: 0.14708
LLC PREFETCH  REQUESTED:          0  ISSUED:          0  USEFUL:     173048  USELESS:     373008
LLC USEFUL LOAD PREFETCHES:     173048 PREFETCH ISSUED TO LOWER LEVEL:     546318  ACCURACY: 31.6753
LLC TIMELY PREFETCHES:     173048 LATE PREFETCHES: 132 DROPPED PREFETCHES: 0
LLC PREFETCHES SAME FILL-ORIGIN LEVEL: 522036 DIFFERENT FILL-ORIGIN LEVEL: 0
LLC AVERAGE MISS LATENCY: 106.357 cycles
LLC RQ	ACCESS:     245215	FORWARD:          0	MERGED:          0	TO_CACHE:     245215
LLC WQ	ACCESS:       5458	FORWARD:          0	MERGED:          0	TO_CACHE:       5458
LLC PQ	ACCESS:    2692448	FORWARD:          0	MERGED:        377	TO_CACHE:    2692071

Revised Interactions: positive negative neutral
LLC_interactions 153516 391650 33209 26.5426 67.7156 5.74178
LLC Dense regions hint to LLC: 0

RAW hits: 76
Loads Generated: 19112635
Loads sent to L1D: 19112559
Stores Generated: 1699868
Stores sent to L1D: 1699868
Major fault: 0 Minor fault: 33297
Allocated PAGES: 33297
 All Calls: 1282923
 Critical Calls: 1282923
------------------
Depth Distribution
------------------
depth 0: 0
depth 1: 1137063
depth 2: 1063974
depth 3: 1012202
depth 4: 967841
depth 5: 908175
depth 6: 546925
depth 7: 141646
depth 8: 8010
depth 9: 0
depth 10: 0
depth 11: 0
depth 12: 0
depth 13: 0
depth 14: 0
depth 15: 0
depth 16: 0
depth 17: 0
depth 18: 0
depth 19: 0
depth 20: 0
depth 21: 0
depth 22: 0
depth 23: 0
depth 24: 0
depth 25: 0
depth 26: 0
depth 27: 0
depth 28: 0
depth 29: 0
Total: 5785836
-----------------------------
-----------------------------
	Captured at Filter
-----------------------------
depth 0: 0
depth 1: 7730
depth 2: 7496
depth 3: 7354
depth 4: 7163
depth 5: 7009
depth 6: 4496
depth 7: 1255
depth 8: 82
depth 9: 0
depth 10: 0
depth 11: 0
depth 12: 0
depth 13: 0
depth 14: 0
depth 15: 0
depth 16: 0
depth 17: 0
depth 18: 0
depth 19: 0
depth 20: 0
depth 21: 0
depth 22: 0
depth 23: 0
depth 24: 0
depth 25: 0
depth 26: 0
depth 27: 0
depth 28: 0
depth 29: 0
-----------------------------
-----------------------------
		Lost at Page
-----------------------------
depth 0: 0
depth 1: 19599
depth 2: 38939
depth 3: 58339
depth 4: 77785
depth 5: 97264
depth 6: 75264
depth 7: 24143
depth 8: 1501
depth 9: 0
depth 10: 0
depth 11: 0
depth 12: 0
depth 13: 0
depth 14: 0
depth 15: 0
depth 16: 0
depth 17: 0
depth 18: 0
depth 19: 0
depth 20: 0
depth 21: 0
depth 22: 0
depth 23: 0
depth 24: 0
depth 25: 0
depth 26: 0
depth 27: 0
depth 28: 0
depth 29: 0
-----------------------------
-----------------------------
	Lost due to PQ Size
-----------------------------
1130306
-----------------------------
ST read accesses: 621424
ST write accesses: 19747
PT read accesses: 20391242
PT write accesses: 918253
FILTER read accesses: 4574160
FILTER write accesses: 1490508
GHR read accesses: 844053
GHR write accesses: 171782
GHR counter read accesses: 17604678
GHR counter write accesses: 1515107
ST tag read accesses: 256335261
ST tag write accesses: 8874065

DRAM Statistics
 CHANNEL 0
 RQ ROW_BUFFER_HIT:     456940  ROW_BUFFER_MISS:     151200
 DBUS_CONGESTED:         83
 WQ ROW_BUFFER_HIT:        761  ROW_BUFFER_MISS:       4566  FULL:          0

 AVG_CONGESTED_CYCLE: 4
 All warmup complete: 2
Channel 0 Bank busy for read cycles: 0
Channel 0 Bank busy for write cycles: 0
Channel 0
Rank 0
0banks busy for read cycles: 25345746
0banks busy for write cycles: 3955
1banks busy for read cycles: 10814732
1banks busy for write cycles: 617908
2banks busy for read cycles: 6222548
2banks busy for write cycles: 107242
3banks busy for read cycles: 2978873
3banks busy for write cycles: 28600
4banks busy for read cycles: 1192204
4banks busy for write cycles: 9763
5banks busy for read cycles: 476722
5banks busy for write cycles: 4627
6banks busy for read cycles: 483571
6banks busy for write cycles: 2064
7banks busy for read cycles: 384443
7banks busy for write cycles: 759
8banks busy for read cycles: 73818
8banks busy for write cycles: 43

CPU 0 Branch Prediction Accuracy: 99.9281% MPKI: 0.0361 Average ROB Occupancy at Mispredict: 108.453
Branch types
NOT_BRANCH: 47488720 94.9774%
BRANCH_DIRECT_JUMP: 40 8e-05%
BRANCH_INDIRECT: 0 0%
BRANCH_CONDITIONAL: 2510857 5.02171%
BRANCH_DIRECT_CALL: 40 8e-05%
BRANCH_INDIRECT_CALL: 0 0%
BRANCH_RETURN: 40 8e-05%
BRANCH_OTHER: 0 0%

@sumon_overall_L1D         0         0         0         0         0         0         0
@Sumon_Early_by_class_L1D         0         0         0         0
@Sumon_Late_by_class_L1D         0         0         0         0

@Sumon_Early_by_cycle_L1D         0         0         0         0         0         0         0         0         0         0         0         0
@Sumon_Late_by_cycle_L1D         0         0         0         0         0         0
@Sumon_Early_stream_L1D         0         0         0         0         0         0         0         0         0         0         0         0
@Sumon_Early_CS_L1D         0         0         0         0         0         0         0         0         0         0         0         0
@Sumon_Early_CPLX_L1D         0         0         0         0         0         0         0         0         0         0         0         0
@Sumon_Late_stream_L1D         0         0         0         0         0         0
@Sumon_Late_CS_L1D         0         0         0         0         0         0
@Sumon_Late_CPLX_L1D         0         0         0         0         0         0
@sumon_overall_L2C    407755       272         0      6949    414712   2712691   3248508
@Sumon_Early_by_class_L2C         0         0         0         0
@Sumon_Late_by_class_L2C         0         0         0         0

@Sumon_Early_by_cycle_L2C      1684      3880    380313     17263      3043      1567         5         0         0         0         0         0
@Sumon_Late_by_cycle_L2C        41        91        61        50        29         0
@Sumon_Early_stream_L2C         0         0         0         0         0         0         0         0         0         0         0         0
@Sumon_Early_CS_L2C         0         0         0         0         0         0         0         0         0         0         0         0
@Sumon_Early_CPLX_L2C         0         0         0         0         0         0         0         0         0         0         0         0
@Sumon_Late_stream_L2C         0         0         0         0         0         0
@Sumon_Late_CS_L2C         0         0         0         0         0         0
@Sumon_Late_CPLX_L2C         0         0         0         0         0         0
DRAM PAGES: 1048576
Allocated PAGES: 33297
