
*** ChampSim Multicore Out-of-Order Simulator ***

Warmup Instructions: 10000000
Simulation Instructions: 50000000
Number of CPUs: 1
LLC sets: 2048
LLC ways: 16
Off-chip DRAM Size: 4096 MB Channels: 1 Width: 64-bit Data Rate: 6400 MT/s
CPU 0 runs traces/clientserver/client_005.champsimtrace.xz
.xz
CPU 0 Bimodal branch predictor
BTB has LRU replacement policy
ITLB has LRU replacement policy
DTLB has LRU replacement policy
STLB has LRU replacement policy
L1I has LRU replacement policy
IP Table Entries: 256
L1D has LRU replacement policy
IP_Table L2 entries: 256
L2C has LRU replacement policy
LLC has LRU replacement policy
Heartbeat CPU 0 instructions: 10000002 cycles: 2797925 heartbeat IPC: 3.57408 cumulative IPC: 3.57408 (Simulation time: 0 hr 9 min 56 sec) 

Warmup complete CPU 0 instructions: 10000002 cycles: 2797925 (Simulation time: 0 hr 9 min 56 sec) 

Heartbeat CPU 0 instructions: 20000003 cycles: 19968475 heartbeat IPC: 0.582393 cumulative IPC: 0.582393 (Simulation time: 0 hr 19 min 31 sec) 
Heartbeat CPU 0 instructions: 30000003 cycles: 34279519 heartbeat IPC: 0.698761 cumulative IPC: 0.635292 (Simulation time: 0 hr 29 min 32 sec) 
Heartbeat CPU 0 instructions: 40000001 cycles: 48939961 heartbeat IPC: 0.682108 cumulative IPC: 0.650166 (Simulation time: 0 hr 39 min 33 sec) 
Heartbeat CPU 0 instructions: 50000000 cycles: 67127401 heartbeat IPC: 0.54983 cumulative IPC: 0.621799 (Simulation time: 0 hr 49 min 27 sec) 
Heartbeat CPU 0 instructions: 60000001 cycles: 85776151 heartbeat IPC: 0.536229 cumulative IPC: 0.602568 (Simulation time: 0 hr 58 min 1 sec) 
Finished CPU 0 instructions: 50000000 cycles: 82978227 cumulative IPC: 0.602568 (Simulation time: 0 hr 58 min 1 sec) 

ChampSim completed all CPUs

Region of Interest Statistics

CPU 0 cumulative IPC: 0.602568 instructions: 50000000 cycles: 82978227
ITLB TOTAL     ACCESS:    8429728  HIT:    8334655  MISS:      95073  HIT %:    98.8722  MISS %:    1.12783   MPKI: 1.90146
ITLB LOAD TRANSLATION ACCESS:    8429728  HIT:    8334655  MISS:      95073  HIT %:    98.8722  MISS %:    1.12783   MPKI: 1.90146
ITLB PREFETCH  REQUESTED:          0  ISSUED:          0  USEFUL:          0  USELESS:          0
ITLB USEFUL LOAD PREFETCHES:          0 PREFETCH ISSUED TO LOWER LEVEL:          0  ACCURACY: -nan
ITLB TIMELY PREFETCHES:          0 LATE PREFETCHES: 0 DROPPED PREFETCHES: 0
ITLB PREFETCHES SAME FILL-ORIGIN LEVEL: 0 DIFFERENT FILL-ORIGIN LEVEL: 0
ITLB AVERAGE MISS LATENCY: 10.541 cycles
ITLB RQ	ACCESS:    9980867	FORWARD:          0	MERGED:    1526635	TO_CACHE:    8454232

DTLB TOTAL     ACCESS:   10778174  HIT:   10575064  MISS:     203110  HIT %:    98.1155  MISS %:    1.88446   MPKI: 4.0622
DTLB LOAD TRANSLATION ACCESS:   10778174  HIT:   10575064  MISS:     203110  HIT %:    98.1155  MISS %:    1.88446   MPKI: 4.0622
DTLB PREFETCH  REQUESTED:          0  ISSUED:          0  USEFUL:          0  USELESS:          0
DTLB USEFUL LOAD PREFETCHES:          0 PREFETCH ISSUED TO LOWER LEVEL:          0  ACCURACY: -nan
DTLB TIMELY PREFETCHES:          0 LATE PREFETCHES: 0 DROPPED PREFETCHES: 0
DTLB PREFETCHES SAME FILL-ORIGIN LEVEL: 0 DIFFERENT FILL-ORIGIN LEVEL: 0
DTLB AVERAGE MISS LATENCY: 13.801 cycles
DTLB RQ	ACCESS:   14673932	FORWARD:          0	MERGED:    3869030	TO_CACHE:   10804902

STLB TOTAL     ACCESS:     617467  HIT:     606310  MISS:      11157  HIT %:    98.1931  MISS %:     1.8069   MPKI: 0.22314
STLB LOAD TRANSLATION ACCESS:     298183  HIT:     287026  MISS:      11157  HIT %:    96.2583  MISS %:    3.74166   MPKI: 0.22314
STLB TRANSLATION FROM L1D PREFETCHER ACCESS:     319284  HIT:     319284  MISS:          0  HIT %:        100  MISS %:          0   MPKI: 0
STLB PREFETCH  REQUESTED:          0  ISSUED:          0  USEFUL:          0  USELESS:          0
STLB USEFUL LOAD PREFETCHES:          0 PREFETCH ISSUED TO LOWER LEVEL:          0  ACCURACY: -nan
STLB TIMELY PREFETCHES:          0 LATE PREFETCHES: 0 DROPPED PREFETCHES: 0
STLB PREFETCHES SAME FILL-ORIGIN LEVEL: 0 DIFFERENT FILL-ORIGIN LEVEL: 0
STLB AVERAGE MISS LATENCY: 98.7204 cycles
STLB RQ	ACCESS:     696103	FORWARD:          0	MERGED:      78636	TO_CACHE:     617467

STLB Hit, L1D data hit: 0
STLB Hit, L2C data hit: 0
STLB Hit, LLC data hit: 0
STLB Hit, LLC data miss: 0
STLB STLB hints to L2: 0
L1D TOTAL     ACCESS:   14582502  HIT:   14109856  MISS:     472646  HIT %:    96.7588  MISS %:    3.24119   MPKI: 9.45292
L1D LOAD      ACCESS:    7347996  HIT:    7181381  MISS:     166615  HIT %:    97.7325  MISS %:    2.26749   MPKI: 3.3323
L1D RFO       ACCESS:    6843307  HIT:    6646433  MISS:     196874  HIT %:    97.1231  MISS %:    2.87688   MPKI: 3.93748
L1D PREFETCH  ACCESS:     391199  HIT:     282042  MISS:     109157  HIT %:    72.0968  MISS %:    27.9032   MPKI: 2.18314
L1D PREFETCH  REQUESTED:     796622  ISSUED:     796622  USEFUL:      37374  USELESS:      71845
L1D USEFUL LOAD PREFETCHES:      37374 PREFETCH ISSUED TO LOWER LEVEL:     109838  ACCURACY: 34.0265
L1D TIMELY PREFETCHES:      37374 LATE PREFETCHES: 7409 DROPPED PREFETCHES: 0
L1D PREFETCHES SAME FILL-ORIGIN LEVEL: 109838 DIFFERENT FILL-ORIGIN LEVEL: 0
L1D AVERAGE MISS LATENCY: 60204.3 cycles
L1D RQ	ACCESS:   11225120	FORWARD:          0	MERGED:    3697636	TO_CACHE:    7376462
L1D WQ	ACCESS:    7432372	FORWARD:     151804	MERGED:     134902	TO_CACHE:    7297470
L1D PQ	ACCESS:     398702	FORWARD:          0	MERGED:          0	TO_CACHE:     397920

L1D UNIQUE REGIONS ACCESSED: 0
L1D REGIONS CONFLICTS: 0
L1D Cross Page Prefetch Requests: 0
L1D Same Page Prefetch Requests: 519725
L1D ROI Sum of L1D PQ occupancy: 5237353
L1D PREFETCHES PUSHED FROM L2C: 0
L1I TOTAL     ACCESS:    9832800  HIT:    9226265  MISS:     606535  HIT %:    93.8315  MISS %:    6.16849   MPKI: 12.1307
L1I LOAD      ACCESS:    9832800  HIT:    9226265  MISS:     606535  HIT %:    93.8315  MISS %:    6.16849   MPKI: 12.1307
L1I PREFETCH  REQUESTED:          0  ISSUED:          0  USEFUL:          0  USELESS:          0
L1I USEFUL LOAD PREFETCHES:          0 PREFETCH ISSUED TO LOWER LEVEL:          0  ACCURACY: -nan
L1I TIMELY PREFETCHES:          0 LATE PREFETCHES: 0 DROPPED PREFETCHES: 0
L1I PREFETCHES SAME FILL-ORIGIN LEVEL: 0 DIFFERENT FILL-ORIGIN LEVEL: 0
L1I AVERAGE MISS LATENCY: 22.3742 cycles
L1I RQ	ACCESS:   14579018	FORWARD:          0	MERGED:    4598151	TO_CACHE:    9980867

BTB TOTAL     ACCESS:    6893713  HIT:    6283561  MISS:     610152  HIT %:    91.1492  MISS %:    8.85085   MPKI: 12.203
BTB BRANCH_DIRECT_JUMP	ACCESS:     483896  HIT:     465834  MISS:      18062
BTB BRANCH_INDIRECT	ACCESS:      85593  HIT:      43913  MISS:      41680
BTB BRANCH_CONDITIONAL	ACCESS:    3985081  HIT:    3930845  MISS:      54236
BTB BRANCH_DIRECT_CALL	ACCESS:    1028275  HIT:     991419  MISS:      36856
BTB BRANCH_INDIRECT_CALL	ACCESS:     140671  HIT:     104723  MISS:      35948
BTB BRANCH_RETURN	ACCESS:    1170197  HIT:     746827  MISS:     423370
BTB BRANCH_OTHER ACCESS:          0  HIT:          0  MISS:          0

L2C TOTAL     ACCESS:    1431589  HIT:    1035249  MISS:     396340  HIT %:    72.3147  MISS %:    27.6853   MPKI: 7.9268
L2C LOAD      ACCESS:     773142  HIT:     633336  MISS:     139806  HIT %:    81.9172  MISS %:    18.0828   MPKI: 2.79612
L2C DATA LOAD MPKI: 1.38914
L2C INSTRUCTION LOAD MPKI: 1.40698
L2C RFO       ACCESS:     196190  HIT:      34902  MISS:     161288  HIT %:    17.7899  MISS %:    82.2101   MPKI: 3.22576
L2C PREFETCH  ACCESS:     203011  HIT:     112583  MISS:      90428  HIT %:    55.4566  MISS %:    44.5434   MPKI: 1.80856
L2C DATA PREFETCH MPKI: 1.80856
L2C INSTRUCTION PREFETCH MPKI: 0
L2C WRITEBACK ACCESS:     247285  HIT:     246189  MISS:       1096  HIT %:    99.5568  MISS %:   0.443213   MPKI: 0.02192
L2C LOAD TRANSLATION ACCESS:      11961  HIT:       8239  MISS:       3722  HIT %:    68.8822  MISS %:    31.1178   MPKI: 0.07444
L2C PREFETCH  REQUESTED:      98356  ISSUED:      98356  USEFUL:      12947  USELESS:      77276
L2C USEFUL LOAD PREFETCHES:      12947 PREFETCH ISSUED TO LOWER LEVEL:      91142  ACCURACY: 14.2053
L2C TIMELY PREFETCHES:      12947 LATE PREFETCHES: 714 DROPPED PREFETCHES: 0
L2C PREFETCHES SAME FILL-ORIGIN LEVEL: 25262 DIFFERENT FILL-ORIGIN LEVEL: 0
L2C AVERAGE MISS LATENCY: 127.656 cycles
L2C RQ	ACCESS:     981305	FORWARD:          0	MERGED:          0	TO_CACHE:     981294
L2C WQ	ACCESS:     247285	FORWARD:         15	MERGED:          0	TO_CACHE:     247285
L2C PQ	ACCESS:     208194	FORWARD:          0	MERGED:       2537	TO_CACHE:     205653

L2C Instructions Evicting Data 45221
L2C Translations Evicting Data 2773
L2C Data Evicting Data 274040
L2C Instructions Evicting Instructions 24187
L2C Translations Evicting Instructions 872
L2C Data Evicting Instructions 44426
L2C Instructions Evicting Translations 941
L2C Translations Evicting Translations 77
L2C Data Evicting Translations 2707
L2C Dense regions hint from L2: 0
PSCL5 TOTAL     ACCESS:      11157  HIT:      11157  MISS:          0  HIT %:        100  MISS %:          0   MPKI: 0
PSCL5 LOAD TRANSLATION ACCESS:      11157  HIT:      11157  MISS:          0  HIT %:        100  MISS %:          0   MPKI: 0
PSCL5 PREFETCH  REQUESTED:          0  ISSUED:          0  USEFUL:          0  USELESS:          0
PSCL5 USEFUL LOAD PREFETCHES:          0 PREFETCH ISSUED TO LOWER LEVEL:          0  ACCURACY: -nan
PSCL5 TIMELY PREFETCHES:          0 LATE PREFETCHES: 0 DROPPED PREFETCHES: 0
PSCL5 PREFETCHES SAME FILL-ORIGIN LEVEL: 0 DIFFERENT FILL-ORIGIN LEVEL: 0

PSCL4 TOTAL     ACCESS:      11157  HIT:      11157  MISS:          0  HIT %:        100  MISS %:          0   MPKI: 0
PSCL4 LOAD TRANSLATION ACCESS:      11157  HIT:      11157  MISS:          0  HIT %:        100  MISS %:          0   MPKI: 0
PSCL4 PREFETCH  REQUESTED:          0  ISSUED:          0  USEFUL:          0  USELESS:          0
PSCL4 USEFUL LOAD PREFETCHES:          0 PREFETCH ISSUED TO LOWER LEVEL:          0  ACCURACY: -nan
PSCL4 TIMELY PREFETCHES:          0 LATE PREFETCHES: 0 DROPPED PREFETCHES: 0
PSCL4 PREFETCHES SAME FILL-ORIGIN LEVEL: 0 DIFFERENT FILL-ORIGIN LEVEL: 0

PSCL3 TOTAL     ACCESS:      11137  HIT:      11128  MISS:          9  HIT %:    99.9192  MISS %:  0.0808117   MPKI: 0.00018
PSCL3 LOAD TRANSLATION ACCESS:      11137  HIT:      11128  MISS:          9  HIT %:    99.9192  MISS %:  0.0808117   MPKI: 0.00018
PSCL3 PREFETCH  REQUESTED:          0  ISSUED:          0  USEFUL:          0  USELESS:          0
PSCL3 USEFUL LOAD PREFETCHES:          0 PREFETCH ISSUED TO LOWER LEVEL:          0  ACCURACY: -nan
PSCL3 TIMELY PREFETCHES:          0 LATE PREFETCHES: 0 DROPPED PREFETCHES: 0
PSCL3 PREFETCHES SAME FILL-ORIGIN LEVEL: 0 DIFFERENT FILL-ORIGIN LEVEL: 0

PSCL2 TOTAL     ACCESS:      11157  HIT:      10353  MISS:        804  HIT %:    92.7938  MISS %:    7.20624   MPKI: 0.01608
PSCL2 LOAD TRANSLATION ACCESS:      11157  HIT:      10353  MISS:        804  HIT %:    92.7938  MISS %:    7.20624   MPKI: 0.01608
PSCL2 PREFETCH  REQUESTED:          0  ISSUED:          0  USEFUL:          0  USELESS:          0
PSCL2 USEFUL LOAD PREFETCHES:          0 PREFETCH ISSUED TO LOWER LEVEL:          0  ACCURACY: -nan
PSCL2 TIMELY PREFETCHES:          0 LATE PREFETCHES: 0 DROPPED PREFETCHES: 0
PSCL2 PREFETCHES SAME FILL-ORIGIN LEVEL: 0 DIFFERENT FILL-ORIGIN LEVEL: 0

LLC TOTAL     ACCESS:     590989  HIT:     322365  MISS:     268624  HIT %:    54.5467  MISS %:    45.4533   MPKI: 5.37248
LLC LOAD      ACCESS:     139159  HIT:      79322  MISS:      59837  HIT %:     57.001  MISS %:     42.999   MPKI: 1.19674
LLC RFO       ACCESS:     161208  HIT:      10925  MISS:     150283  HIT %:    6.77696  MISS %:     93.223   MPKI: 3.00566
LLC PREFETCH  ACCESS:      91141  HIT:      35356  MISS:      55785  HIT %:    38.7926  MISS %:    61.2074   MPKI: 1.1157
LLC WRITEBACK ACCESS:     195759  HIT:     194952  MISS:        807  HIT %:    99.5878  MISS %:   0.412242   MPKI: 0.01614
LLC LOAD TRANSLATION ACCESS:       3722  HIT:       1810  MISS:       1912  HIT %:    48.6298  MISS %:    51.3702   MPKI: 0.03824
LLC PREFETCH  REQUESTED:          0  ISSUED:          0  USEFUL:       5272  USELESS:      50584
LLC USEFUL LOAD PREFETCHES:       5272 PREFETCH ISSUED TO LOWER LEVEL:      55785  ACCURACY: 9.45057
LLC TIMELY PREFETCHES:       5272 LATE PREFETCHES: 0 DROPPED PREFETCHES: 0
LLC PREFETCHES SAME FILL-ORIGIN LEVEL: 0 DIFFERENT FILL-ORIGIN LEVEL: 0
LLC AVERAGE MISS LATENCY: 144.124 cycles
LLC RQ	ACCESS:     304102	FORWARD:          0	MERGED:          0	TO_CACHE:     304089
LLC WQ	ACCESS:     195759	FORWARD:         14	MERGED:          0	TO_CACHE:     195759
LLC PQ	ACCESS:      91142	FORWARD:          0	MERGED:          0	TO_CACHE:      91141

LLC Dense regions hint to LLC: 0

RAW hits: 1580549
Loads Generated: 12805668
Loads sent to L1D: 11225120
Stores Generated: 7432359
Stores sent to L1D: 7432372
Major fault: 0 Minor fault: 5569
Allocated PAGES: 5569

stream: 
stream:times selected: 760002
stream:pref_filled: 66992
stream:pref_useful: 19080
stream:pref_late: 2026
stream:misses: 7136
stream:misses_by_poll: 0

CS: 
CS:times selected: 109063
CS:pref_filled: 32891
CS:pref_useful: 22488
CS:pref_late: 2938
CS:misses: 6614
CS:misses_by_poll: 40

CPLX: 
CPLX:times selected: 643812
CPLX:pref_filled: 30145
CPLX:pref_useful: 4641
CPLX:pref_late: 194
CPLX:misses: 35629
CPLX:misses_by_poll: 26

NL_L1: 
NL:times selected: 5946
NL:pref_filled: 1034
NL:pref_useful: 234
NL:pref_late: 26
NL:misses: 376
NL:misses_by_poll: 0

total selections: 1518823
total_filled: 109157
total_useful: 37374
total_late: 5287
total_polluted: 66
total_misses_after_warmup: 195082
conflicts: 2431274
Degree Incremented Times: 1707
Degree Decremented Times: 77996

L1 IP Table Write Accesses: 4501286
L1 IP Table Read Accesses: 2070012
L1 RST Write Accesses: 592800
L1 RST Read Accesses: 1185600
L1 CSPT Write Accesses: 592800
L1 CSPT Read Accesses: 1108656
L1 RR Filter Tag Write Accesses: 398702
L1 RR Filter Tag Read Accesses: 24896595
L1 IP Table Tag Write Accesses: 7376463
L1 IP Table Tag Read Accesses: 7376463
L1 RST Tag Write Accesses: 0
L1 RST Tag Read Accesses: 5479962
L1 RR Filter Write Accesses: 0
L1 RR Filter Read Accesses: 937729
test: 229101
L2 IP Table Read Accesses: 450061
L2 IP Table Write Accesses: 443908
L2 IP Table Tag Read Accesses: 274250
L2 IP Table Tag Write Accesses: 274250

DRAM Statistics
 CHANNEL 0
 RQ ROW_BUFFER_HIT:      95492  ROW_BUFFER_MISS:     172324
 DBUS_CONGESTED:        148
 WQ ROW_BUFFER_HIT:      45570  ROW_BUFFER_MISS:     129879  FULL:          0

 AVG_CONGESTED_CYCLE: 3
 All warmup complete: 2
Channel 0 Bank busy for read cycles: 0
Channel 0 Bank busy for write cycles: 0
Channel 0
Rank 0
0banks busy for read cycles: 54023768
0banks busy for write cycles: 42919
1banks busy for read cycles: 10889255
1banks busy for write cycles: 4862969
2banks busy for read cycles: 4230185
2banks busy for write cycles: 2548885
3banks busy for read cycles: 1158630
3banks busy for write cycles: 1176372
4banks busy for read cycles: 396708
4banks busy for write cycles: 550626
5banks busy for read cycles: 239972
5banks busy for write cycles: 402446
6banks busy for read cycles: 221421
6banks busy for write cycles: 360223
7banks busy for read cycles: 191675
7banks busy for write cycles: 424078
8banks busy for read cycles: 300717
8banks busy for write cycles: 957379

CPU 0 Branch Prediction Accuracy: 94.7774% MPKI: 9.54576 Average ROB Occupancy at Mispredict: 39.4721
Branch types
NOT_BRANCH: 40860721 81.7214%
BRANCH_DIRECT_JUMP: 483896 0.967792%
BRANCH_INDIRECT: 85593 0.171186%
BRANCH_CONDITIONAL: 6230321 12.4606%
BRANCH_DIRECT_CALL: 1028275 2.05655%
BRANCH_INDIRECT_CALL: 140671 0.281342%
BRANCH_RETURN: 1170197 2.34039%
BRANCH_OTHER: 0 0%

@sumon_overall_L1D     37374      7409     71845    109157    796622    796622
@Sumon_Early_by_class_L1D     15274     17489      3548        25
@Sumon_Late_by_class_L1D      1876      2908       178        25

@Sumon_Early_by_cycle_L1D      8188      5312      2773      1551      1009      5204      4799      2470      1949      2157      1176       786
@Sumon_Late_by_cycle_L1D      3286      1253       507        25         5         0         0         0         0         0         0         0
@Sumon_Early_stream_L1D      3310      1499      1338       807       497      2600      1089       851      1026      1136       671       450
@Sumon_Early_CS_L1D      4296      3591      1130       503       351      2080      3305      1192       373       376       142       150
@Sumon_Early_CPLX_L1D       330       129       236       207       142       418       336       298       380       570       333       169
@Sumon_Late_stream_L1D      1433       439         4         0         0         0         0         0         0         0         0         0
@Sumon_Late_CS_L1D      1626       750       502        25         5         0         0         0         0         0         0         0
@Sumon_Late_CPLX_L1D       140        37         1         0         0         0         0         0         0         0         0         0
@sumon_overall_L2C     12947       714     77276     90428     98356     98356
@Sumon_Early_by_class_L2C      2048      1695       929         0
@Sumon_Late_by_class_L2C         0         1         0         0

@Sumon_Early_by_cycle_L2C       983       493       588       321       297       989       662       550       560       671       484      6349
@Sumon_Late_by_cycle_L2C       402       310         2         0         0         0         0         0         0         0         0         0
@Sumon_Early_stream_L2C         0         0         0         0         0         0         2         0         6        15       105      1920
@Sumon_Early_CS_L2C         9         2         0         0         2         0         1         1        11         9        42      1618
@Sumon_Early_CPLX_L2C         0         0         0         0         0         0         0         0         3         6        30       890
@Sumon_Late_stream_L2C         0         0         0         0         0         0         0         0         0         0         0         0
@Sumon_Late_CS_L2C         1         0         0         0         0         0         0         0         0         0         0         0
@Sumon_Late_CPLX_L2C         0         0         0         0         0         0         0         0         0         0         0         0
DRAM PAGES: 1048576
Allocated PAGES: 5569
