
*** ChampSim Multicore Out-of-Order Simulator ***

Warmup Instructions: 10000000
Simulation Instructions: 50000000
Number of CPUs: 1
LLC sets: 2048
LLC ways: 16
Off-chip DRAM Size: 4096 MB Channels: 1 Width: 64-bit Data Rate: 6400 MT/s
CPU 0 runs traces/clientserver/server_009.champsimtrace.xz
.xz
CPU 0 Bimodal branch predictor
BTB has LRU replacement policy
ITLB has LRU replacement policy
DTLB has LRU replacement policy
STLB has LRU replacement policy
L1I has LRU replacement policy
IP Table Entries: 256
L1D has LRU replacement policy
IP_Table L2 entries: 256
L2C has LRU replacement policy
LLC has LRU replacement policy
Heartbeat CPU 0 instructions: 10000001 cycles: 2770761 heartbeat IPC: 3.60912 cumulative IPC: 3.60912 (Simulation time: 0 hr 9 min 31 sec) 

Warmup complete CPU 0 instructions: 10000001 cycles: 2770761 (Simulation time: 0 hr 9 min 31 sec) 

Heartbeat CPU 0 instructions: 20000003 cycles: 23517153 heartbeat IPC: 0.482012 cumulative IPC: 0.482012 (Simulation time: 0 hr 18 min 54 sec) 
Heartbeat CPU 0 instructions: 30000002 cycles: 44460774 heartbeat IPC: 0.477472 cumulative IPC: 0.479731 (Simulation time: 0 hr 28 min 14 sec) 
Heartbeat CPU 0 instructions: 40000000 cycles: 65928892 heartbeat IPC: 0.465807 cumulative IPC: 0.474998 (Simulation time: 0 hr 37 min 43 sec) 
Heartbeat CPU 0 instructions: 50000002 cycles: 86560806 heartbeat IPC: 0.484686 cumulative IPC: 0.477384 (Simulation time: 0 hr 47 min 9 sec) 
Heartbeat CPU 0 instructions: 60000001 cycles: 112954407 heartbeat IPC: 0.37888 cumulative IPC: 0.453788 (Simulation time: 0 hr 58 min 22 sec) 
Finished CPU 0 instructions: 50000000 cycles: 110183646 cumulative IPC: 0.453788 (Simulation time: 0 hr 58 min 22 sec) 

ChampSim completed all CPUs

Region of Interest Statistics

CPU 0 cumulative IPC: 0.453788 instructions: 50000000 cycles: 110183646
ITLB TOTAL     ACCESS:    8298028  HIT:    8112875  MISS:     185153  HIT %:    97.7687  MISS %:    2.23129   MPKI: 3.70306
ITLB LOAD TRANSLATION ACCESS:    8298028  HIT:    8112875  MISS:     185153  HIT %:    97.7687  MISS %:    2.23129   MPKI: 3.70306
ITLB PREFETCH  REQUESTED:          0  ISSUED:          0  USEFUL:          0  USELESS:          0
ITLB USEFUL LOAD PREFETCHES:          0 PREFETCH ISSUED TO LOWER LEVEL:          0  ACCURACY: -nan
ITLB TIMELY PREFETCHES:          0 LATE PREFETCHES: 0 DROPPED PREFETCHES: 0
ITLB PREFETCHES SAME FILL-ORIGIN LEVEL: 0 DIFFERENT FILL-ORIGIN LEVEL: 0
ITLB AVERAGE MISS LATENCY: 17.5265 cycles
ITLB RQ	ACCESS:   10025021	FORWARD:          0	MERGED:    1679207	TO_CACHE:    8345814

DTLB TOTAL     ACCESS:   10481169  HIT:    9440498  MISS:    1040671  HIT %:     90.071  MISS %:    9.92896   MPKI: 20.8134
DTLB LOAD TRANSLATION ACCESS:   10481169  HIT:    9440498  MISS:    1040671  HIT %:     90.071  MISS %:    9.92896   MPKI: 20.8134
DTLB PREFETCH  REQUESTED:          0  ISSUED:          0  USEFUL:          0  USELESS:          0
DTLB USEFUL LOAD PREFETCHES:          0 PREFETCH ISSUED TO LOWER LEVEL:          0  ACCURACY: -nan
DTLB TIMELY PREFETCHES:          0 LATE PREFETCHES: 0 DROPPED PREFETCHES: 0
DTLB PREFETCHES SAME FILL-ORIGIN LEVEL: 0 DIFFERENT FILL-ORIGIN LEVEL: 0
DTLB AVERAGE MISS LATENCY: 12.6923 cycles
DTLB RQ	ACCESS:   13115981	FORWARD:          0	MERGED:    2599900	TO_CACHE:   10516081

STLB TOTAL     ACCESS:    1978929  HIT:    1867815  MISS:     111114  HIT %:    94.3851  MISS %:    5.61486   MPKI: 2.22228
STLB LOAD TRANSLATION ACCESS:    1225824  HIT:    1114710  MISS:     111114  HIT %:    90.9356  MISS %:    9.06443   MPKI: 2.22228
STLB TRANSLATION FROM L1D PREFETCHER ACCESS:     753105  HIT:     753105  MISS:          0  HIT %:        100  MISS %:          0   MPKI: 0
STLB PREFETCH  REQUESTED:          0  ISSUED:          0  USEFUL:          0  USELESS:          0
STLB USEFUL LOAD PREFETCHES:          0 PREFETCH ISSUED TO LOWER LEVEL:          0  ACCURACY: -nan
STLB TIMELY PREFETCHES:          0 LATE PREFETCHES: 0 DROPPED PREFETCHES: 0
STLB PREFETCHES SAME FILL-ORIGIN LEVEL: 0 DIFFERENT FILL-ORIGIN LEVEL: 0
STLB AVERAGE MISS LATENCY: 48.6409 cycles
STLB RQ	ACCESS:    2656656	FORWARD:          0	MERGED:     677727	TO_CACHE:    1978929

STLB Hit, L1D data hit: 0
STLB Hit, L2C data hit: 0
STLB Hit, LLC data hit: 0
STLB Hit, LLC data miss: 0
STLB STLB hints to L2: 0
L1D TOTAL     ACCESS:   14376097  HIT:   12371073  MISS:    2005024  HIT %:    86.0531  MISS %:    13.9469   MPKI: 40.1005
L1D LOAD      ACCESS:    8104708  HIT:    6980762  MISS:    1123946  HIT %:    86.1322  MISS %:    13.8678   MPKI: 22.4789
L1D RFO       ACCESS:    4853102  HIT:    4756933  MISS:      96169  HIT %:    98.0184  MISS %:     1.9816   MPKI: 1.92338
L1D PREFETCH  ACCESS:    1418287  HIT:     633378  MISS:     784909  HIT %:     44.658  MISS %:     55.342   MPKI: 15.6982
L1D PREFETCH  REQUESTED:    2861951  ISSUED:    2861830  USEFUL:      83117  USELESS:     701541
L1D USEFUL LOAD PREFETCHES:      83117 PREFETCH ISSUED TO LOWER LEVEL:     785093  ACCURACY: 10.5869
L1D TIMELY PREFETCHES:      83117 LATE PREFETCHES: 23547 DROPPED PREFETCHES: 0
L1D PREFETCHES SAME FILL-ORIGIN LEVEL: 785093 DIFFERENT FILL-ORIGIN LEVEL: 0
L1D AVERAGE MISS LATENCY: 4939.72 cycles
L1D RQ	ACCESS:   11462552	FORWARD:          0	MERGED:    3233554	TO_CACHE:    8153638
L1D WQ	ACCESS:    5045877	FORWARD:      75526	MERGED:      83534	TO_CACHE:    4962343
L1D PQ	ACCESS:    1430998	FORWARD:          0	MERGED:          0	TO_CACHE:    1430832

L1D UNIQUE REGIONS ACCESSED: 0
L1D REGIONS CONFLICTS: 0
L1D Cross Page Prefetch Requests: 0
L1D Same Page Prefetch Requests: 1478535
L1D ROI Sum of L1D PQ occupancy: 18790057
L1D PREFETCHES PUSHED FROM L2C: 0
L1I TOTAL     ACCESS:    9635265  HIT:    8421183  MISS:    1214082  HIT %:    87.3996  MISS %:    12.6004   MPKI: 24.2816
L1I LOAD      ACCESS:    9635265  HIT:    8421183  MISS:    1214082  HIT %:    87.3996  MISS %:    12.6004   MPKI: 24.2816
L1I PREFETCH  REQUESTED:          0  ISSUED:          0  USEFUL:          0  USELESS:          0
L1I USEFUL LOAD PREFETCHES:          0 PREFETCH ISSUED TO LOWER LEVEL:          0  ACCURACY: -nan
L1I TIMELY PREFETCHES:          0 LATE PREFETCHES: 0 DROPPED PREFETCHES: 0
L1I PREFETCHES SAME FILL-ORIGIN LEVEL: 0 DIFFERENT FILL-ORIGIN LEVEL: 0
L1I AVERAGE MISS LATENCY: 31.1156 cycles
L1I RQ	ACCESS:   14396035	FORWARD:          0	MERGED:    4371014	TO_CACHE:   10025021

BTB TOTAL     ACCESS:    5173686  HIT:    4398171  MISS:     775515  HIT %:    85.0104  MISS %:    14.9896   MPKI: 15.5103
BTB BRANCH_DIRECT_JUMP	ACCESS:     463492  HIT:     404158  MISS:      59334
BTB BRANCH_INDIRECT	ACCESS:     174870  HIT:     123350  MISS:      51520
BTB BRANCH_CONDITIONAL	ACCESS:    2812699  HIT:    2571063  MISS:     241636
BTB BRANCH_DIRECT_CALL	ACCESS:     679008  HIT:     567416  MISS:     111592
BTB BRANCH_INDIRECT_CALL	ACCESS:     165073  HIT:     152920  MISS:      12153
BTB BRANCH_RETURN	ACCESS:     878544  HIT:     579264  MISS:     299280
BTB BRANCH_OTHER ACCESS:          0  HIT:          0  MISS:          0

L2C TOTAL     ACCESS:    4012119  HIT:    2768173  MISS:    1243946  HIT %:    68.9953  MISS %:    31.0047   MPKI: 24.8789
L2C LOAD      ACCESS:    2338013  HIT:    1480637  MISS:     857376  HIT %:    63.3289  MISS %:    36.6711   MPKI: 17.1475
L2C DATA LOAD MPKI: 4.72768
L2C INSTRUCTION LOAD MPKI: 12.4198
L2C RFO       ACCESS:      95984  HIT:      47731  MISS:      48253  HIT %:    49.7281  MISS %:    50.2719   MPKI: 0.96506
L2C PREFETCH  ACCESS:    1183936  HIT:     913239  MISS:     270697  HIT %:    77.1358  MISS %:    22.8642   MPKI: 5.41394
L2C DATA PREFETCH MPKI: 5.41394
L2C INSTRUCTION PREFETCH MPKI: 0
L2C WRITEBACK ACCESS:     253586  HIT:     250503  MISS:       3083  HIT %:    98.7842  MISS %:    1.21576   MPKI: 0.06166
L2C LOAD TRANSLATION ACCESS:     140600  HIT:      76063  MISS:      64537  HIT %:    54.0989  MISS %:    45.9011   MPKI: 1.29074
L2C PREFETCH  REQUESTED:     424362  ISSUED:     424362  USEFUL:      69110  USELESS:     200801
L2C USEFUL LOAD PREFETCHES:      69110 PREFETCH ISSUED TO LOWER LEVEL:     276191  ACCURACY: 25.0225
L2C TIMELY PREFETCHES:      69110 LATE PREFETCHES: 5494 DROPPED PREFETCHES: 0
L2C PREFETCHES SAME FILL-ORIGIN LEVEL: 208207 DIFFERENT FILL-ORIGIN LEVEL: 0
L2C AVERAGE MISS LATENCY: 42.0039 cycles
L2C RQ	ACCESS:    2574613	FORWARD:          0	MERGED:          0	TO_CACHE:    2574597
L2C WQ	ACCESS:     253586	FORWARD:         16	MERGED:          0	TO_CACHE:     253586
L2C PQ	ACCESS:    1209455	FORWARD:          0	MERGED:       4642	TO_CACHE:    1204813

L2C Instructions Evicting Data 278855
L2C Translations Evicting Data 29609
L2C Data Evicting Data 247729
L2C Instructions Evicting Instructions 309473
L2C Translations Evicting Instructions 32012
L2C Data Evicting Instructions 278829
L2C Instructions Evicting Translations 32664
L2C Translations Evicting Translations 2916
L2C Data Evicting Translations 28776
L2C Dense regions hint from L2: 0
PSCL5 TOTAL     ACCESS:     111114  HIT:     111114  MISS:          0  HIT %:        100  MISS %:          0   MPKI: 0
PSCL5 LOAD TRANSLATION ACCESS:     111114  HIT:     111114  MISS:          0  HIT %:        100  MISS %:          0   MPKI: 0
PSCL5 PREFETCH  REQUESTED:          0  ISSUED:          0  USEFUL:          0  USELESS:          0
PSCL5 USEFUL LOAD PREFETCHES:          0 PREFETCH ISSUED TO LOWER LEVEL:          0  ACCURACY: -nan
PSCL5 TIMELY PREFETCHES:          0 LATE PREFETCHES: 0 DROPPED PREFETCHES: 0
PSCL5 PREFETCHES SAME FILL-ORIGIN LEVEL: 0 DIFFERENT FILL-ORIGIN LEVEL: 0

PSCL4 TOTAL     ACCESS:     103019  HIT:     102702  MISS:        317  HIT %:    99.6923  MISS %:    0.30771   MPKI: 0.00634
PSCL4 LOAD TRANSLATION ACCESS:     103019  HIT:     102702  MISS:        317  HIT %:    99.6923  MISS %:    0.30771   MPKI: 0.00634
PSCL4 PREFETCH  REQUESTED:          0  ISSUED:          0  USEFUL:          0  USELESS:          0
PSCL4 USEFUL LOAD PREFETCHES:          0 PREFETCH ISSUED TO LOWER LEVEL:          0  ACCURACY: -nan
PSCL4 TIMELY PREFETCHES:          0 LATE PREFETCHES: 0 DROPPED PREFETCHES: 0
PSCL4 PREFETCHES SAME FILL-ORIGIN LEVEL: 0 DIFFERENT FILL-ORIGIN LEVEL: 0

PSCL3 TOTAL     ACCESS:     110284  HIT:     109400  MISS:        884  HIT %:    99.1984  MISS %:   0.801567   MPKI: 0.01768
PSCL3 LOAD TRANSLATION ACCESS:     110284  HIT:     109400  MISS:        884  HIT %:    99.1984  MISS %:   0.801567   MPKI: 0.01768
PSCL3 PREFETCH  REQUESTED:          0  ISSUED:          0  USEFUL:          0  USELESS:          0
PSCL3 USEFUL LOAD PREFETCHES:          0 PREFETCH ISSUED TO LOWER LEVEL:          0  ACCURACY: -nan
PSCL3 TIMELY PREFETCHES:          0 LATE PREFETCHES: 0 DROPPED PREFETCHES: 0
PSCL3 PREFETCHES SAME FILL-ORIGIN LEVEL: 0 DIFFERENT FILL-ORIGIN LEVEL: 0

PSCL2 TOTAL     ACCESS:     111114  HIT:      82755  MISS:      28359  HIT %:    74.4776  MISS %:    25.5224   MPKI: 0.56718
PSCL2 LOAD TRANSLATION ACCESS:     111114  HIT:      82755  MISS:      28359  HIT %:    74.4776  MISS %:    25.5224   MPKI: 0.56718
PSCL2 PREFETCH  REQUESTED:          0  ISSUED:          0  USEFUL:          0  USELESS:          0
PSCL2 USEFUL LOAD PREFETCHES:          0 PREFETCH ISSUED TO LOWER LEVEL:          0  ACCURACY: -nan
PSCL2 TIMELY PREFETCHES:          0 LATE PREFETCHES: 0 DROPPED PREFETCHES: 0
PSCL2 PREFETCHES SAME FILL-ORIGIN LEVEL: 0 DIFFERENT FILL-ORIGIN LEVEL: 0

LLC TOTAL     ACCESS:    1395471  HIT:    1298934  MISS:      96537  HIT %:    93.0821  MISS %:    6.91788   MPKI: 1.93074
LLC LOAD      ACCESS:     852026  HIT:     818852  MISS:      33174  HIT %:    96.1065  MISS %:    3.89354   MPKI: 0.66348
LLC RFO       ACCESS:      48109  HIT:      38249  MISS:       9860  HIT %:    79.5049  MISS %:    20.4951   MPKI: 0.1972
LLC PREFETCH  ACCESS:     276191  HIT:     225231  MISS:      50960  HIT %:     81.549  MISS %:     18.451   MPKI: 1.0192
LLC WRITEBACK ACCESS:     154608  HIT:     154553  MISS:         55  HIT %:    99.9644  MISS %:  0.0355738   MPKI: 0.0011
LLC LOAD TRANSLATION ACCESS:      64537  HIT:      62049  MISS:       2488  HIT %:    96.1448  MISS %:    3.85515   MPKI: 0.04976
LLC PREFETCH  REQUESTED:          0  ISSUED:          0  USEFUL:       4021  USELESS:      46590
LLC USEFUL LOAD PREFETCHES:       4021 PREFETCH ISSUED TO LOWER LEVEL:      50960  ACCURACY: 7.8905
LLC TIMELY PREFETCHES:       4021 LATE PREFETCHES: 0 DROPPED PREFETCHES: 0
LLC PREFETCHES SAME FILL-ORIGIN LEVEL: 0 DIFFERENT FILL-ORIGIN LEVEL: 0
LLC AVERAGE MISS LATENCY: 157.933 cycles
LLC RQ	ACCESS:     964672	FORWARD:          0	MERGED:          0	TO_CACHE:     964672
LLC WQ	ACCESS:     154608	FORWARD:          0	MERGED:          0	TO_CACHE:     154608
LLC PQ	ACCESS:     276191	FORWARD:          0	MERGED:          0	TO_CACHE:     276191

LLC Dense regions hint to LLC: 0

RAW hits: 769215
Loads Generated: 12231765
Loads sent to L1D: 11462552
Stores Generated: 5045874
Stores sent to L1D: 5045877
Major fault: 0 Minor fault: 5580
Allocated PAGES: 5580

stream: 
stream:times selected: 1226823
stream:pref_filled: 494588
stream:pref_useful: 29706
stream:pref_late: 3187
stream:misses: 297240
stream:misses_by_poll: 0

CS: 
CS:times selected: 234817
CS:pref_filled: 121545
CS:pref_useful: 28088
CS:pref_late: 11588
CS:misses: 22758
CS:misses_by_poll: 2

CPLX: 
CPLX:times selected: 1107685
CPLX:pref_filled: 183879
CPLX:pref_useful: 30020
CPLX:pref_late: 8184
CPLX:misses: 320648
CPLX:misses_by_poll: 452

NL_L1: 
NL:times selected: 7753
NL:pref_filled: 1192
NL:pref_useful: 206
NL:pref_late: 21
NL:misses: 387
NL:misses_by_poll: 0

total selections: 2577078
total_filled: 784909
total_useful: 83117
total_late: 23220
total_polluted: 454
total_misses_after_warmup: 1172878
conflicts: 2384864
Degree Incremented Times: 0
Degree Decremented Times: 130637

L1 IP Table Write Accesses: 5234207
L1 IP Table Read Accesses: 2849343
L1 RST Write Accesses: 1159501
L1 RST Read Accesses: 2319002
L1 CSPT Write Accesses: 1159501
L1 CSPT Read Accesses: 2205604
L1 RR Filter Tag Write Accesses: 1431119
L1 RR Filter Tag Read Accesses: 60281644
L1 IP Table Tag Write Accesses: 8153640
L1 IP Table Tag Read Accesses: 8153640
L1 RST Tag Write Accesses: 0
L1 RST Tag Read Accesses: 10232307
L1 RR Filter Write Accesses: 0
L1 RR Filter Read Accesses: 1965905
test: 570608
L2 IP Table Read Accesses: 3375509
L2 IP Table Write Accesses: 3046261
L2 IP Table Tag Read Accesses: 1903965
L2 IP Table Tag Write Accesses: 1903965

DRAM Statistics
 CHANNEL 0
 RQ ROW_BUFFER_HIT:      17204  ROW_BUFFER_MISS:      79278
 DBUS_CONGESTED:         55
 WQ ROW_BUFFER_HIT:       7200  ROW_BUFFER_MISS:      45387  FULL:          0

 AVG_CONGESTED_CYCLE: 4
 All warmup complete: 2
Channel 0 Bank busy for read cycles: 0
Channel 0 Bank busy for write cycles: 0
Channel 0
Rank 0
0banks busy for read cycles: 95435026
0banks busy for write cycles: 27087
1banks busy for read cycles: 6832310
1banks busy for write cycles: 3604356
2banks busy for read cycles: 1754509
2banks busy for write cycles: 958957
3banks busy for read cycles: 423297
3banks busy for write cycles: 338545
4banks busy for read cycles: 148899
4banks busy for write cycles: 178511
5banks busy for read cycles: 48174
5banks busy for write cycles: 126127
6banks busy for read cycles: 18762
6banks busy for write cycles: 91160
7banks busy for read cycles: 9579
7banks busy for write cycles: 81796
8banks busy for read cycles: 16358
8banks busy for write cycles: 90194

CPU 0 Branch Prediction Accuracy: 93.4981% MPKI: 12.6299 Average ROB Occupancy at Mispredict: 24.4738
Branch types
NOT_BRANCH: 40287182 80.5744%
BRANCH_DIRECT_JUMP: 463492 0.926984%
BRANCH_INDIRECT: 174870 0.34974%
BRANCH_CONDITIONAL: 7351543 14.7031%
BRANCH_DIRECT_CALL: 679008 1.35802%
BRANCH_INDIRECT_CALL: 165073 0.330146%
BRANCH_RETURN: 878544 1.75709%
BRANCH_OTHER: 0 0%

@sumon_overall_L1D     83117     23547    701541    784909   2861830   2861951
@Sumon_Early_by_class_L1D     26015     25695     29349        18
@Sumon_Late_by_class_L1D      2940     11400      8141        18

@Sumon_Early_by_cycle_L1D     51465      3360     13554      1966      1848      3570      1397      1465      2049      1622       642       179
@Sumon_Late_by_cycle_L1D     22126       460       105        11         0         0         0         0         0         0         0         0
@Sumon_Early_stream_L1D     12046      1867      1828      1433      1280      2290      1019      1161      1394      1170       393       134
@Sumon_Early_CS_L1D     21533       592      2266        99       226       635       120        75        62        19        61         7
@Sumon_Early_CPLX_L1D     17417       615      9197       188       117       451       200       202       440       352       137        33
@Sumon_Late_stream_L1D      2745       192         3         0         0         0         0         0         0         0         0         0
@Sumon_Late_CS_L1D     11062       227       100        11         0         0         0         0         0         0         0         0
@Sumon_Late_CPLX_L1D      8119        20         2         0         0         0         0         0         0         0         0         0
@sumon_overall_L2C     69110      5494    200801    270697    424362    424362
@Sumon_Early_by_class_L2C      1490       418       576         0
@Sumon_Late_by_class_L2C         0         0         0         0

@Sumon_Early_by_cycle_L2C     11160      7950      8393      5245      3738      9891      4881      3403      2449      2511      1731      7758
@Sumon_Late_by_cycle_L2C      4114      1379         1         0         0         0         0         0         0         0         0         0
@Sumon_Early_stream_L2C         0         0         0         0         0         0         0         0         0        15        96      1379
@Sumon_Early_CS_L2C         0         0         0         0         0         0         0         0         0         1        59       358
@Sumon_Early_CPLX_L2C         0         0         0         0         0         0         0         0         0        16        44       516
@Sumon_Late_stream_L2C         0         0         0         0         0         0         0         0         0         0         0         0
@Sumon_Late_CS_L2C         0         0         0         0         0         0         0         0         0         0         0         0
@Sumon_Late_CPLX_L2C         0         0         0         0         0         0         0         0         0         0         0         0
DRAM PAGES: 1048576
Allocated PAGES: 5580
