
*** ChampSim Multicore Out-of-Order Simulator ***

Warmup Instructions: 10000000
Simulation Instructions: 50000000
Number of CPUs: 1
LLC sets: 2048
LLC ways: 16
Off-chip DRAM Size: 4096 MB Channels: 1 Width: 64-bit Data Rate: 6400 MT/s
CPU 0 runs traces/clientserver/server_031.champsimtrace.xz
.xz
CPU 0 Bimodal branch predictor
BTB has LRU replacement policy
ITLB has LRU replacement policy
DTLB has LRU replacement policy
STLB has LRU replacement policy
L1I has LRU replacement policy
IP Table Entries: 256
L1D has LRU replacement policy
IP_Table L2 entries: 256
L2C has LRU replacement policy
LLC has LRU replacement policy
Heartbeat CPU 0 instructions: 10000000 cycles: 2887988 heartbeat IPC: 3.46262 cumulative IPC: 3.46262 (Simulation time: 0 hr 10 min 28 sec) 

Warmup complete CPU 0 instructions: 10000004 cycles: 2887989 (Simulation time: 0 hr 10 min 28 sec) 

Heartbeat CPU 0 instructions: 20000003 cycles: 28335907 heartbeat IPC: 0.39296 cumulative IPC: 0.392959 (Simulation time: 0 hr 20 min 26 sec) 
Heartbeat CPU 0 instructions: 30000001 cycles: 53719435 heartbeat IPC: 0.393956 cumulative IPC: 0.393457 (Simulation time: 0 hr 30 min 19 sec) 
Heartbeat CPU 0 instructions: 40000002 cycles: 79043816 heartbeat IPC: 0.394876 cumulative IPC: 0.393929 (Simulation time: 0 hr 40 min 10 sec) 
Heartbeat CPU 0 instructions: 50000001 cycles: 104324954 heartbeat IPC: 0.395552 cumulative IPC: 0.394334 (Simulation time: 0 hr 50 min 0 sec) 
Heartbeat CPU 0 instructions: 60000002 cycles: 129726216 heartbeat IPC: 0.393681 cumulative IPC: 0.394203 (Simulation time: 0 hr 58 min 31 sec) 
Finished CPU 0 instructions: 50000002 cycles: 126838228 cumulative IPC: 0.394203 (Simulation time: 0 hr 58 min 31 sec) 

ChampSim completed all CPUs

Region of Interest Statistics

CPU 0 cumulative IPC: 0.394203 instructions: 50000002 cycles: 126838228
ITLB TOTAL     ACCESS:    8597744  HIT:    8045704  MISS:     552040  HIT %:    93.5792  MISS %:    6.42075   MPKI: 11.0408
ITLB LOAD TRANSLATION ACCESS:    8597744  HIT:    8045704  MISS:     552040  HIT %:    93.5792  MISS %:    6.42075   MPKI: 11.0408
ITLB PREFETCH  REQUESTED:          0  ISSUED:          0  USEFUL:          0  USELESS:          0
ITLB USEFUL LOAD PREFETCHES:          0 PREFETCH ISSUED TO LOWER LEVEL:          0  ACCURACY: -nan
ITLB TIMELY PREFETCHES:          0 LATE PREFETCHES: 0 DROPPED PREFETCHES: 0
ITLB PREFETCHES SAME FILL-ORIGIN LEVEL: 0 DIFFERENT FILL-ORIGIN LEVEL: 0
ITLB AVERAGE MISS LATENCY: 9.16404 cycles
ITLB RQ	ACCESS:   10317891	FORWARD:          0	MERGED:    1581058	TO_CACHE:    8736833

DTLB TOTAL     ACCESS:   12569170  HIT:   12008642  MISS:     560528  HIT %:    95.5405  MISS %:    4.45955   MPKI: 11.2106
DTLB LOAD TRANSLATION ACCESS:   12569170  HIT:   12008642  MISS:     560528  HIT %:    95.5405  MISS %:    4.45955   MPKI: 11.2106
DTLB PREFETCH  REQUESTED:          0  ISSUED:          0  USEFUL:          0  USELESS:          0
DTLB USEFUL LOAD PREFETCHES:          0 PREFETCH ISSUED TO LOWER LEVEL:          0  ACCURACY: -nan
DTLB TIMELY PREFETCHES:          0 LATE PREFETCHES: 0 DROPPED PREFETCHES: 0
DTLB PREFETCHES SAME FILL-ORIGIN LEVEL: 0 DIFFERENT FILL-ORIGIN LEVEL: 0
DTLB AVERAGE MISS LATENCY: 11.5042 cycles
DTLB RQ	ACCESS:   15699284	FORWARD:          0	MERGED:    3111603	TO_CACHE:   12587681

STLB TOTAL     ACCESS:    1493464  HIT:    1479493  MISS:      13971  HIT %:    99.0645  MISS %:   0.935476   MPKI: 0.27942
STLB LOAD TRANSLATION ACCESS:    1112568  HIT:    1098597  MISS:      13971  HIT %:    98.7443  MISS %:    1.25574   MPKI: 0.27942
STLB TRANSLATION FROM L1D PREFETCHER ACCESS:     380896  HIT:     380896  MISS:          0  HIT %:        100  MISS %:          0   MPKI: 0
STLB PREFETCH  REQUESTED:          0  ISSUED:          0  USEFUL:          0  USELESS:          0
STLB USEFUL LOAD PREFETCHES:          0 PREFETCH ISSUED TO LOWER LEVEL:          0  ACCURACY: -nan
STLB TIMELY PREFETCHES:          0 LATE PREFETCHES: 0 DROPPED PREFETCHES: 0
STLB PREFETCHES SAME FILL-ORIGIN LEVEL: 0 DIFFERENT FILL-ORIGIN LEVEL: 0
STLB AVERAGE MISS LATENCY: 105.963 cycles
STLB RQ	ACCESS:    1596975	FORWARD:          0	MERGED:     103511	TO_CACHE:    1493464

STLB Hit, L1D data hit: 0
STLB Hit, L2C data hit: 0
STLB Hit, LLC data hit: 0
STLB Hit, LLC data miss: 0
STLB STLB hints to L2: 0
L1D TOTAL     ACCESS:   15597158  HIT:   14180230  MISS:    1416928  HIT %:    90.9155  MISS %:    9.08453   MPKI: 28.3386
L1D LOAD      ACCESS:    8651162  HIT:    7788330  MISS:     862832  HIT %:    90.0264  MISS %:     9.9736   MPKI: 17.2566
L1D RFO       ACCESS:    6481824  HIT:    6172105  MISS:     309719  HIT %:    95.2217  MISS %:    4.77827   MPKI: 6.19438
L1D PREFETCH  ACCESS:     464172  HIT:     219795  MISS:     244377  HIT %:    47.3521  MISS %:    52.6479   MPKI: 4.88754
L1D PREFETCH  REQUESTED:     969091  ISSUED:     969089  USEFUL:      62129  USELESS:     182204
L1D USEFUL LOAD PREFETCHES:      62129 PREFETCH ISSUED TO LOWER LEVEL:     244866  ACCURACY: 25.3727
L1D TIMELY PREFETCHES:      62129 LATE PREFETCHES: 62026 DROPPED PREFETCHES: 0
L1D PREFETCHES SAME FILL-ORIGIN LEVEL: 244866 DIFFERENT FILL-ORIGIN LEVEL: 0
L1D AVERAGE MISS LATENCY: 22507 cycles
L1D RQ	ACCESS:   11885809	FORWARD:          0	MERGED:    3009784	TO_CACHE:    8754936
L1D WQ	ACCESS:    6988846	FORWARD:     121364	MERGED:      44498	TO_CACHE:    6944348
L1D PQ	ACCESS:     484682	FORWARD:          0	MERGED:          0	TO_CACHE:     484407

L1D UNIQUE REGIONS ACCESSED: 0
L1D REGIONS CONFLICTS: 0
L1D Cross Page Prefetch Requests: 0
L1D Same Page Prefetch Requests: 575979
L1D ROI Sum of L1D PQ occupancy: 6259000
L1D PREFETCHES PUSHED FROM L2C: 0
L1I TOTAL     ACCESS:    9782942  HIT:    6775666  MISS:    3007276  HIT %:      69.26  MISS %:      30.74   MPKI: 60.1455
L1I LOAD      ACCESS:    9782942  HIT:    6775666  MISS:    3007276  HIT %:      69.26  MISS %:      30.74   MPKI: 60.1455
L1I PREFETCH  REQUESTED:          0  ISSUED:          0  USEFUL:          0  USELESS:          0
L1I USEFUL LOAD PREFETCHES:          0 PREFETCH ISSUED TO LOWER LEVEL:          0  ACCURACY: -nan
L1I TIMELY PREFETCHES:          0 LATE PREFETCHES: 0 DROPPED PREFETCHES: 0
L1I PREFETCHES SAME FILL-ORIGIN LEVEL: 0 DIFFERENT FILL-ORIGIN LEVEL: 0
L1I AVERAGE MISS LATENCY: 17.7404 cycles
L1I RQ	ACCESS:   14056045	FORWARD:          0	MERGED:    3738154	TO_CACHE:   10317891

BTB TOTAL     ACCESS:    6102276  HIT:    4206282  MISS:    1895994  HIT %:    68.9297  MISS %:    31.0703   MPKI: 37.9199
BTB BRANCH_DIRECT_JUMP	ACCESS:     546758  HIT:     394739  MISS:     152019
BTB BRANCH_INDIRECT	ACCESS:     172660  HIT:     135870  MISS:      36790
BTB BRANCH_CONDITIONAL	ACCESS:    2968197  HIT:    2446713  MISS:     521484
BTB BRANCH_DIRECT_CALL	ACCESS:    1018538  HIT:     647411  MISS:     371127
BTB BRANCH_INDIRECT_CALL	ACCESS:     188789  HIT:     117745  MISS:      71044
BTB BRANCH_RETURN	ACCESS:    1207334  HIT:     463804  MISS:     743530
BTB BRANCH_OTHER ACCESS:          0  HIT:          0  MISS:          0

L2C TOTAL     ACCESS:    5747136  HIT:    5043671  MISS:     703465  HIT %:    87.7597  MISS %:    12.2403   MPKI: 14.0693
L2C LOAD      ACCESS:    3870105  HIT:    3380587  MISS:     489518  HIT %:    87.3513  MISS %:    12.6487   MPKI: 9.79036
L2C DATA LOAD MPKI: 2.57882
L2C INSTRUCTION LOAD MPKI: 7.21154
L2C RFO       ACCESS:     309230  HIT:     256192  MISS:      53038  HIT %:    82.8484  MISS %:    17.1516   MPKI: 1.06076
L2C PREFETCH  ACCESS:     952063  HIT:     809281  MISS:     142782  HIT %:    85.0029  MISS %:    14.9971   MPKI: 2.85564
L2C DATA PREFETCH MPKI: 2.85564
L2C INSTRUCTION PREFETCH MPKI: 0
L2C WRITEBACK ACCESS:     594561  HIT:     588762  MISS:       5799  HIT %:    99.0247  MISS %:   0.975341   MPKI: 0.11598
L2C LOAD TRANSLATION ACCESS:      21177  HIT:       8849  MISS:      12328  HIT %:    41.7859  MISS %:    58.2141   MPKI: 0.24656
L2C PREFETCH  REQUESTED:     724901  ISSUED:     724901  USEFUL:      19352  USELESS:     123762
L2C USEFUL LOAD PREFETCHES:      19352 PREFETCH ISSUED TO LOWER LEVEL:     146824  ACCURACY: 13.1804
L2C TIMELY PREFETCHES:      19352 LATE PREFETCHES: 4042 DROPPED PREFETCHES: 0
L2C PREFETCHES SAME FILL-ORIGIN LEVEL: 80734 DIFFERENT FILL-ORIGIN LEVEL: 0
L2C AVERAGE MISS LATENCY: 41.4945 cycles
L2C RQ	ACCESS:    4200514	FORWARD:          0	MERGED:          0	TO_CACHE:    4200512
L2C WQ	ACCESS:     594561	FORWARD:          2	MERGED:          0	TO_CACHE:     594561
L2C PQ	ACCESS:     969767	FORWARD:          0	MERGED:       6528	TO_CACHE:     963239

L2C Instructions Evicting Data 138368
L2C Translations Evicting Data 8360
L2C Data Evicting Data 181756
L2C Instructions Evicting Instructions 218830
L2C Translations Evicting Instructions 3193
L2C Data Evicting Instructions 134821
L2C Instructions Evicting Translations 3379
L2C Translations Evicting Translations 775
L2C Data Evicting Translations 8184
L2C Dense regions hint from L2: 0
PSCL5 TOTAL     ACCESS:      13971  HIT:      13971  MISS:          0  HIT %:        100  MISS %:          0   MPKI: 0
PSCL5 LOAD TRANSLATION ACCESS:      13971  HIT:      13971  MISS:          0  HIT %:        100  MISS %:          0   MPKI: 0
PSCL5 PREFETCH  REQUESTED:          0  ISSUED:          0  USEFUL:          0  USELESS:          0
PSCL5 USEFUL LOAD PREFETCHES:          0 PREFETCH ISSUED TO LOWER LEVEL:          0  ACCURACY: -nan
PSCL5 TIMELY PREFETCHES:          0 LATE PREFETCHES: 0 DROPPED PREFETCHES: 0
PSCL5 PREFETCHES SAME FILL-ORIGIN LEVEL: 0 DIFFERENT FILL-ORIGIN LEVEL: 0

PSCL4 TOTAL     ACCESS:      13315  HIT:      13146  MISS:        169  HIT %:    98.7308  MISS %:    1.26925   MPKI: 0.00338
PSCL4 LOAD TRANSLATION ACCESS:      13315  HIT:      13146  MISS:        169  HIT %:    98.7308  MISS %:    1.26925   MPKI: 0.00338
PSCL4 PREFETCH  REQUESTED:          0  ISSUED:          0  USEFUL:          0  USELESS:          0
PSCL4 USEFUL LOAD PREFETCHES:          0 PREFETCH ISSUED TO LOWER LEVEL:          0  ACCURACY: -nan
PSCL4 TIMELY PREFETCHES:          0 LATE PREFETCHES: 0 DROPPED PREFETCHES: 0
PSCL4 PREFETCHES SAME FILL-ORIGIN LEVEL: 0 DIFFERENT FILL-ORIGIN LEVEL: 0

PSCL3 TOTAL     ACCESS:      13938  HIT:      13769  MISS:        169  HIT %:    98.7875  MISS %:    1.21251   MPKI: 0.00338
PSCL3 LOAD TRANSLATION ACCESS:      13938  HIT:      13769  MISS:        169  HIT %:    98.7875  MISS %:    1.21251   MPKI: 0.00338
PSCL3 PREFETCH  REQUESTED:          0  ISSUED:          0  USEFUL:          0  USELESS:          0
PSCL3 USEFUL LOAD PREFETCHES:          0 PREFETCH ISSUED TO LOWER LEVEL:          0  ACCURACY: -nan
PSCL3 TIMELY PREFETCHES:          0 LATE PREFETCHES: 0 DROPPED PREFETCHES: 0
PSCL3 PREFETCHES SAME FILL-ORIGIN LEVEL: 0 DIFFERENT FILL-ORIGIN LEVEL: 0

PSCL2 TOTAL     ACCESS:      13971  HIT:       7097  MISS:       6874  HIT %:    50.7981  MISS %:    49.2019   MPKI: 0.13748
PSCL2 LOAD TRANSLATION ACCESS:      13971  HIT:       7097  MISS:       6874  HIT %:    50.7981  MISS %:    49.2019   MPKI: 0.13748
PSCL2 PREFETCH  REQUESTED:          0  ISSUED:          0  USEFUL:          0  USELESS:          0
PSCL2 USEFUL LOAD PREFETCHES:          0 PREFETCH ISSUED TO LOWER LEVEL:          0  ACCURACY: -nan
PSCL2 TIMELY PREFETCHES:          0 LATE PREFETCHES: 0 DROPPED PREFETCHES: 0
PSCL2 PREFETCHES SAME FILL-ORIGIN LEVEL: 0 DIFFERENT FILL-ORIGIN LEVEL: 0

LLC TOTAL     ACCESS:     788202  HIT:     731983  MISS:      56219  HIT %:    92.8674  MISS %:    7.13256   MPKI: 1.12438
LLC LOAD      ACCESS:     485553  HIT:     466821  MISS:      18732  HIT %:    96.1421  MISS %:    3.85787   MPKI: 0.37464
LLC RFO       ACCESS:      52961  HIT:      50290  MISS:       2671  HIT %:    94.9567  MISS %:    5.04333   MPKI: 0.05342
LLC PREFETCH  ACCESS:     146824  HIT:     114476  MISS:      32348  HIT %:    77.9682  MISS %:    22.0318   MPKI: 0.64696
LLC WRITEBACK ACCESS:      90536  HIT:      90291  MISS:        245  HIT %:    99.7294  MISS %:   0.270611   MPKI: 0.0049
LLC LOAD TRANSLATION ACCESS:      12328  HIT:      10105  MISS:       2223  HIT %:    81.9679  MISS %:    18.0321   MPKI: 0.04446
LLC PREFETCH  REQUESTED:          0  ISSUED:          0  USEFUL:       1515  USELESS:      26748
LLC USEFUL LOAD PREFETCHES:       1515 PREFETCH ISSUED TO LOWER LEVEL:      32348  ACCURACY: 4.68344
LLC TIMELY PREFETCHES:       1515 LATE PREFETCHES: 0 DROPPED PREFETCHES: 0
LLC PREFETCHES SAME FILL-ORIGIN LEVEL: 0 DIFFERENT FILL-ORIGIN LEVEL: 0
LLC AVERAGE MISS LATENCY: 146.516 cycles
LLC RQ	ACCESS:     550842	FORWARD:          0	MERGED:          0	TO_CACHE:     550842
LLC WQ	ACCESS:      90536	FORWARD:          0	MERGED:          0	TO_CACHE:      90536
LLC PQ	ACCESS:     146824	FORWARD:          0	MERGED:          0	TO_CACHE:     146824

LLC Dense regions hint to LLC: 0

RAW hits: 571175
Loads Generated: 12456984
Loads sent to L1D: 11885809
Stores Generated: 6988845
Stores sent to L1D: 6988846
Major fault: 0 Minor fault: 5588
Allocated PAGES: 5588

stream: 
stream:times selected: 848164
stream:pref_filled: 177888
stream:pref_useful: 30353
stream:pref_late: 45811
stream:misses: 11388
stream:misses_by_poll: 0

CS: 
CS:times selected: 102475
CS:pref_filled: 65400
CS:pref_useful: 39816
CS:pref_late: 7254
CS:misses: 15368
CS:misses_by_poll: 5

CPLX: 
CPLX:times selected: 743052
CPLX:pref_filled: 39864
CPLX:pref_useful: 6305
CPLX:pref_late: 3335
CPLX:misses: 137242
CPLX:misses_by_poll: 20

NL_L1: 
NL:times selected: 2630
NL:pref_filled: 894
NL:pref_useful: 84
NL:pref_late: 29
NL:misses: 221
NL:misses_by_poll: 0

total selections: 1696321
total_filled: 244377
total_useful: 62129
total_late: 56747
total_polluted: 25
total_misses_after_warmup: 966605
conflicts: 3384399
Degree Incremented Times: 0
Degree Decremented Times: 136031

L1 IP Table Write Accesses: 5090358
L1 IP Table Read Accesses: 1705959
L1 RST Write Accesses: 716151
L1 RST Read Accesses: 1432302
L1 CSPT Write Accesses: 716151
L1 CSPT Read Accesses: 1342217
L1 RR Filter Tag Write Accesses: 484684
L1 RR Filter Tag Read Accesses: 34517643
L1 IP Table Tag Write Accesses: 8754935
L1 IP Table Tag Read Accesses: 8754935
L1 RST Tag Write Accesses: 0
L1 RST Tag Read Accesses: 7004763
L1 RR Filter Write Accesses: 0
L1 RR Filter Read Accesses: 1237206
test: 175347
L2 IP Table Read Accesses: 1470260
L2 IP Table Write Accesses: 1977238
L2 IP Table Tag Read Accesses: 1102013
L2 IP Table Tag Write Accesses: 1102013

DRAM Statistics
 CHANNEL 0
 RQ ROW_BUFFER_HIT:      16649  ROW_BUFFER_MISS:      39325
 DBUS_CONGESTED:         44
 WQ ROW_BUFFER_HIT:        342  ROW_BUFFER_MISS:       1279  FULL:          0

 AVG_CONGESTED_CYCLE: 7
 All warmup complete: 2
Channel 0 Bank busy for read cycles: 0
Channel 0 Bank busy for write cycles: 0
Channel 0
Rank 0
0banks busy for read cycles: 123165109
0banks busy for write cycles: 1136
1banks busy for read cycles: 1459771
1banks busy for write cycles: 194255
2banks busy for read cycles: 1164581
2banks busy for write cycles: 41034
3banks busy for read cycles: 455805
3banks busy for write cycles: 11986
4banks busy for read cycles: 204217
4banks busy for write cycles: 3897
5banks busy for read cycles: 81059
5banks busy for write cycles: 801
6banks busy for read cycles: 25605
6banks busy for write cycles: 722
7banks busy for read cycles: 13815
7banks busy for write cycles: 846
8banks busy for read cycles: 12840
8banks busy for write cycles: 750

CPU 0 Branch Prediction Accuracy: 91.8928% MPKI: 15.1591 Average ROB Occupancy at Mispredict: 19.1064
Branch types
NOT_BRANCH: 40650646 81.3013%
BRANCH_DIRECT_JUMP: 546758 1.09352%
BRANCH_INDIRECT: 172660 0.34532%
BRANCH_CONDITIONAL: 6215044 12.4301%
BRANCH_DIRECT_CALL: 1018538 2.03708%
BRANCH_INDIRECT_CALL: 188789 0.377578%
BRANCH_RETURN: 1207334 2.41467%
BRANCH_OTHER: 0 0%

@sumon_overall_L1D     62129     62026    182204    244377    969089    969091
@Sumon_Early_by_class_L1D     23491     33062      4199        23
@Sumon_Late_by_class_L1D     44517      6833      2778        23

@Sumon_Early_by_cycle_L1D     41212      5296      2746      4943       214      1393       810       672      2020      2128       689         6
@Sumon_Late_by_cycle_L1D     53459       963        20         0         0         0         0         0         0         0         0         0
@Sumon_Early_stream_L1D      8347      3304      1899      3818       193      1259       653       619      1340      1658       396         5
@Sumon_Early_CS_L1D     30944      1322       362       369         1         0         0         0         7        57         0         0
@Sumon_Early_CPLX_L1D      1555       353       469       711        19       133       152        48       163       302       293         1
@Sumon_Late_stream_L1D     43884       620        13         0         0         0         0         0         0         0         0         0
@Sumon_Late_CS_L1D      6559       267         7         0         0         0         0         0         0         0         0         0
@Sumon_Late_CPLX_L1D      2709        69         0         0         0         0         0         0         0         0         0         0
@sumon_overall_L2C     19352      4042    123762    142782    724901    724901
@Sumon_Early_by_class_L2C       959        56       224         0
@Sumon_Late_by_class_L2C         0         0         0         0

@Sumon_Early_by_cycle_L2C      5409      2911       842       246      1345      2696       848      1102      1022       591       453      1887
@Sumon_Late_by_cycle_L2C      3319       719         4         0         0         0         0         0         0         0         0         0
@Sumon_Early_stream_L2C         0         0         0         0         0         0         0         0         0        14        57       888
@Sumon_Early_CS_L2C         0         0         0         0         0         0         0         0         0         0         0        56
@Sumon_Early_CPLX_L2C         0         0         0         0         0         0         0         0         0         2        22       200
@Sumon_Late_stream_L2C         0         0         0         0         0         0         0         0         0         0         0         0
@Sumon_Late_CS_L2C         0         0         0         0         0         0         0         0         0         0         0         0
@Sumon_Late_CPLX_L2C         0         0         0         0         0         0         0         0         0         0         0         0
DRAM PAGES: 1048576
Allocated PAGES: 5588
