
*** ChampSim Multicore Out-of-Order Simulator ***

Warmup Instructions: 10000000
Simulation Instructions: 50000000
Number of CPUs: 1
LLC sets: 2048
LLC ways: 16
Off-chip DRAM Size: 4096 MB Channels: 1 Width: 64-bit Data Rate: 400 MT/s
CPU 0 runs traces/graph/canneal_44B.trace.gz
.gz
CPU 0 Bimodal branch predictor
BTB has LRU replacement policy
ITLB has LRU replacement policy
DTLB has LRU replacement policy
STLB has LRU replacement policy
L1I has LRU replacement policy
IP Table Entries: 256
L1D has LRU replacement policy
IP_Table L2 entries: 256
L2C has LRU replacement policy
LLC has LRU replacement policy
Heartbeat CPU 0 instructions: 10000002 cycles: 3286084 heartbeat IPC: 3.04314 cumulative IPC: 3.04314 (Simulation time: 0 hr 15 min 3 sec) 

Warmup complete CPU 0 instructions: 10000002 cycles: 3286084 (Simulation time: 0 hr 15 min 3 sec) 

Heartbeat CPU 0 instructions: 20000001 cycles: 72769474 heartbeat IPC: 0.143919 cumulative IPC: 0.143919 (Simulation time: 0 hr 39 min 4 sec) 
Heartbeat CPU 0 instructions: 30000001 cycles: 141805852 heartbeat IPC: 0.144851 cumulative IPC: 0.144384 (Simulation time: 1 hr 3 min 13 sec) 
Heartbeat CPU 0 instructions: 40000000 cycles: 210525290 heartbeat IPC: 0.145519 cumulative IPC: 0.14476 (Simulation time: 1 hr 26 min 13 sec) 
Heartbeat CPU 0 instructions: 50000001 cycles: 279119183 heartbeat IPC: 0.145786 cumulative IPC: 0.145015 (Simulation time: 1 hr 45 min 3 sec) 
Heartbeat CPU 0 instructions: 60000000 cycles: 347722331 heartbeat IPC: 0.145766 cumulative IPC: 0.145165 (Simulation time: 1 hr 58 min 37 sec) 
Finished CPU 0 instructions: 50000002 cycles: 344436248 cumulative IPC: 0.145165 (Simulation time: 1 hr 58 min 37 sec) 

ChampSim completed all CPUs

Region of Interest Statistics

CPU 0 cumulative IPC: 0.145165 instructions: 50000002 cycles: 344436248
ITLB TOTAL     ACCESS:    7626458  HIT:    7626458  MISS:          0  HIT %:        100  MISS %:          0   MPKI: 0
ITLB LOAD TRANSLATION ACCESS:    7626458  HIT:    7626458  MISS:          0  HIT %:        100  MISS %:          0   MPKI: 0
ITLB PREFETCH  REQUESTED:          0  ISSUED:          0  USEFUL:          0  USELESS:          0
ITLB USEFUL LOAD PREFETCHES:          0 PREFETCH ISSUED TO LOWER LEVEL:          0  ACCURACY: -nan
ITLB TIMELY PREFETCHES:          0 LATE PREFETCHES: 0 DROPPED PREFETCHES: 0
ITLB PREFETCHES SAME FILL-ORIGIN LEVEL: 0 DIFFERENT FILL-ORIGIN LEVEL: 0
ITLB AVERAGE MISS LATENCY: -nan cycles
ITLB RQ	ACCESS:   10229714	FORWARD:          0	MERGED:    2603256	TO_CACHE:    7626458

DTLB TOTAL     ACCESS:   11544471  HIT:   10310877  MISS:    1233594  HIT %:    89.3144  MISS %:    10.6856   MPKI: 24.6719
DTLB LOAD TRANSLATION ACCESS:   11544471  HIT:   10310877  MISS:    1233594  HIT %:    89.3144  MISS %:    10.6856   MPKI: 24.6719
DTLB PREFETCH  REQUESTED:          0  ISSUED:          0  USEFUL:          0  USELESS:          0
DTLB USEFUL LOAD PREFETCHES:          0 PREFETCH ISSUED TO LOWER LEVEL:          0  ACCURACY: -nan
DTLB TIMELY PREFETCHES:          0 LATE PREFETCHES: 0 DROPPED PREFETCHES: 0
DTLB PREFETCHES SAME FILL-ORIGIN LEVEL: 0 DIFFERENT FILL-ORIGIN LEVEL: 0
DTLB AVERAGE MISS LATENCY: 100.588 cycles
DTLB RQ	ACCESS:   12653620	FORWARD:          0	MERGED:    1087340	TO_CACHE:   11566280

STLB TOTAL     ACCESS:    2541866  HIT:    1644272  MISS:     897594  HIT %:    64.6876  MISS %:    35.3124   MPKI: 17.9519
STLB LOAD TRANSLATION ACCESS:    1233593  HIT:     335999  MISS:     897594  HIT %:    27.2374  MISS %:    72.7626   MPKI: 17.9519
STLB TRANSLATION FROM L1D PREFETCHER ACCESS:    1308273  HIT:    1308273  MISS:          0  HIT %:        100  MISS %:          0   MPKI: 0
STLB PREFETCH  REQUESTED:          0  ISSUED:          0  USEFUL:          0  USELESS:          0
STLB USEFUL LOAD PREFETCHES:          0 PREFETCH ISSUED TO LOWER LEVEL:          0  ACCURACY: -nan
STLB TIMELY PREFETCHES:          0 LATE PREFETCHES: 0 DROPPED PREFETCHES: 0
STLB PREFETCHES SAME FILL-ORIGIN LEVEL: 0 DIFFERENT FILL-ORIGIN LEVEL: 0
STLB AVERAGE MISS LATENCY: 125.869 cycles
STLB RQ	ACCESS:    2703140	FORWARD:          0	MERGED:     161274	TO_CACHE:    2541866

STLB Hit, L1D data hit: 0
STLB Hit, L2C data hit: 0
STLB Hit, LLC data hit: 0
STLB Hit, LLC data miss: 0
STLB STLB hints to L2: 0
L1D TOTAL     ACCESS:   14004756  HIT:   11759161  MISS:    2245595  HIT %:    83.9655  MISS %:    16.0345   MPKI: 44.9119
L1D LOAD      ACCESS:    8788761  HIT:    7723581  MISS:    1065180  HIT %:    87.8802  MISS %:    12.1198   MPKI: 21.3036
L1D RFO       ACCESS:    3767355  HIT:    3767355  MISS:          0  HIT %:        100  MISS %:          0   MPKI: 0
L1D PREFETCH  ACCESS:    1448640  HIT:     268225  MISS:    1180415  HIT %:    18.5156  MISS %:    81.4844   MPKI: 23.6083
L1D PREFETCH  REQUESTED:    2939112  ISSUED:    2939112  USEFUL:      43446  USELESS:    1136981
L1D USEFUL LOAD PREFETCHES:      43446 PREFETCH ISSUED TO LOWER LEVEL:    1184365  ACCURACY: 3.66829
L1D TIMELY PREFETCHES:      43446 LATE PREFETCHES: 3949 DROPPED PREFETCHES: 0
L1D PREFETCHES SAME FILL-ORIGIN LEVEL: 1184365 DIFFERENT FILL-ORIGIN LEVEL: 0
L1D AVERAGE MISS LATENCY: 306689 cycles
L1D RQ	ACCESS:   13412489	FORWARD:          0	MERGED:    4414862	TO_CACHE:    8886265
L1D WQ	ACCESS:    3768403	FORWARD:     111380	MERGED:       1048	TO_CACHE:    3767355
L1D PQ	ACCESS:    1469565	FORWARD:          0	MERGED:          0	TO_CACHE:    1469547

L1D UNIQUE REGIONS ACCESSED: 0
L1D REGIONS CONFLICTS: 0
L1D Cross Page Prefetch Requests: 0
L1D Same Page Prefetch Requests: 1775266
L1D ROI Sum of L1D PQ occupancy: 19127440
L1D PREFETCHES PUSHED FROM L2C: 0
L1I TOTAL     ACCESS:   10229713  HIT:   10229713  MISS:          0  HIT %:        100  MISS %:          0   MPKI: 0
L1I LOAD      ACCESS:   10229713  HIT:   10229713  MISS:          0  HIT %:        100  MISS %:          0   MPKI: 0
L1I PREFETCH  REQUESTED:          0  ISSUED:          0  USEFUL:          0  USELESS:          0
L1I USEFUL LOAD PREFETCHES:          0 PREFETCH ISSUED TO LOWER LEVEL:          0  ACCURACY: -nan
L1I TIMELY PREFETCHES:          0 LATE PREFETCHES: 0 DROPPED PREFETCHES: 0
L1I PREFETCHES SAME FILL-ORIGIN LEVEL: 0 DIFFERENT FILL-ORIGIN LEVEL: 0
L1I AVERAGE MISS LATENCY: -nan cycles
L1I RQ	ACCESS:   13734673	FORWARD:          0	MERGED:    3504959	TO_CACHE:   10229714

BTB TOTAL     ACCESS:    2690697  HIT:    2591600  MISS:      99097  HIT %:    96.3171  MISS %:    3.68295   MPKI: 1.98194
BTB BRANCH_DIRECT_JUMP	ACCESS:     274203  HIT:     274189  MISS:         14
BTB BRANCH_INDIRECT	ACCESS:      44256  HIT:      44255  MISS:          1
BTB BRANCH_CONDITIONAL	ACCESS:    1701174  HIT:    1701141  MISS:         33
BTB BRANCH_DIRECT_CALL	ACCESS:     335532  HIT:     335522  MISS:         10
BTB BRANCH_INDIRECT_CALL	ACCESS:          0  HIT:          0  MISS:          0
BTB BRANCH_RETURN	ACCESS:     335532  HIT:     236493  MISS:      99039
BTB BRANCH_OTHER ACCESS:          0  HIT:          0  MISS:          0

L2C TOTAL     ACCESS:    4239195  HIT:    1481089  MISS:    2758106  HIT %:     34.938  MISS %:     65.062   MPKI: 55.1621
L2C LOAD      ACCESS:    1061231  HIT:       4538  MISS:    1056693  HIT %:   0.427617  MISS %:    99.5724   MPKI: 21.1339
L2C DATA LOAD MPKI: 21.1339
L2C INSTRUCTION LOAD MPKI: 0
L2C PREFETCH  ACCESS:    1252344  HIT:      83225  MISS:    1169119  HIT %:    6.64554  MISS %:    93.3545   MPKI: 23.3824
L2C DATA PREFETCH MPKI: 23.3824
L2C INSTRUCTION PREFETCH MPKI: 0
L2C WRITEBACK ACCESS:     483043  HIT:     483037  MISS:          6  HIT %:    99.9988  MISS %: 0.00124213   MPKI: 0.00012
L2C LOAD TRANSLATION ACCESS:    1442577  HIT:     910289  MISS:     532288  HIT %:    63.1016  MISS %:    36.8984   MPKI: 10.6458
L2C PREFETCH  REQUESTED:      74432  ISSUED:      74432  USEFUL:       2297  USELESS:    1166851
L2C USEFUL LOAD PREFETCHES:       2297 PREFETCH ISSUED TO LOWER LEVEL:    1169126  ACCURACY: 0.196472
L2C TIMELY PREFETCHES:       2297 LATE PREFETCHES: 6 DROPPED PREFETCHES: 0
L2C PREFETCHES SAME FILL-ORIGIN LEVEL: 13266 DIFFERENT FILL-ORIGIN LEVEL: 0
L2C AVERAGE MISS LATENCY: 241.897 cycles
L2C RQ	ACCESS:    2503808	FORWARD:          0	MERGED:          0	TO_CACHE:    2503808
L2C WQ	ACCESS:     483043	FORWARD:          0	MERGED:          0	TO_CACHE:     483043
L2C PQ	ACCESS:    1258797	FORWARD:          0	MERGED:       5715	TO_CACHE:    1253082

L2C Instructions Evicting Data 0
L2C Translations Evicting Data 428109
L2C Data Evicting Data 1797689
L2C Instructions Evicting Instructions 0
L2C Translations Evicting Instructions 0
L2C Data Evicting Instructions 0
L2C Instructions Evicting Translations 0
L2C Translations Evicting Translations 104179
L2C Data Evicting Translations 428123
L2C Dense regions hint from L2: 0
PSCL5 TOTAL     ACCESS:     897594  HIT:     897594  MISS:          0  HIT %:        100  MISS %:          0   MPKI: 0
PSCL5 LOAD TRANSLATION ACCESS:     897594  HIT:     897594  MISS:          0  HIT %:        100  MISS %:          0   MPKI: 0
PSCL5 PREFETCH  REQUESTED:          0  ISSUED:          0  USEFUL:          0  USELESS:          0
PSCL5 USEFUL LOAD PREFETCHES:          0 PREFETCH ISSUED TO LOWER LEVEL:          0  ACCURACY: -nan
PSCL5 TIMELY PREFETCHES:          0 LATE PREFETCHES: 0 DROPPED PREFETCHES: 0
PSCL5 PREFETCHES SAME FILL-ORIGIN LEVEL: 0 DIFFERENT FILL-ORIGIN LEVEL: 0

PSCL4 TOTAL     ACCESS:     897594  HIT:     897594  MISS:          0  HIT %:        100  MISS %:          0   MPKI: 0
PSCL4 LOAD TRANSLATION ACCESS:     897594  HIT:     897594  MISS:          0  HIT %:        100  MISS %:          0   MPKI: 0
PSCL4 PREFETCH  REQUESTED:          0  ISSUED:          0  USEFUL:          0  USELESS:          0
PSCL4 USEFUL LOAD PREFETCHES:          0 PREFETCH ISSUED TO LOWER LEVEL:          0  ACCURACY: -nan
PSCL4 TIMELY PREFETCHES:          0 LATE PREFETCHES: 0 DROPPED PREFETCHES: 0
PSCL4 PREFETCHES SAME FILL-ORIGIN LEVEL: 0 DIFFERENT FILL-ORIGIN LEVEL: 0

PSCL3 TOTAL     ACCESS:     897594  HIT:     897594  MISS:          0  HIT %:        100  MISS %:          0   MPKI: 0
PSCL3 LOAD TRANSLATION ACCESS:     897594  HIT:     897594  MISS:          0  HIT %:        100  MISS %:          0   MPKI: 0
PSCL3 PREFETCH  REQUESTED:          0  ISSUED:          0  USEFUL:          0  USELESS:          0
PSCL3 USEFUL LOAD PREFETCHES:          0 PREFETCH ISSUED TO LOWER LEVEL:          0  ACCURACY: -nan
PSCL3 TIMELY PREFETCHES:          0 LATE PREFETCHES: 0 DROPPED PREFETCHES: 0
PSCL3 PREFETCHES SAME FILL-ORIGIN LEVEL: 0 DIFFERENT FILL-ORIGIN LEVEL: 0

PSCL2 TOTAL     ACCESS:     897594  HIT:     352611  MISS:     544983  HIT %:     39.284  MISS %:     60.716   MPKI: 10.8997
PSCL2 LOAD TRANSLATION ACCESS:     897594  HIT:     352611  MISS:     544983  HIT %:     39.284  MISS %:     60.716   MPKI: 10.8997
PSCL2 PREFETCH  REQUESTED:          0  ISSUED:          0  USEFUL:          0  USELESS:          0
PSCL2 USEFUL LOAD PREFETCHES:          0 PREFETCH ISSUED TO LOWER LEVEL:          0  ACCURACY: -nan
PSCL2 TIMELY PREFETCHES:          0 LATE PREFETCHES: 0 DROPPED PREFETCHES: 0
PSCL2 PREFETCHES SAME FILL-ORIGIN LEVEL: 0 DIFFERENT FILL-ORIGIN LEVEL: 0

LLC TOTAL     ACCESS:    3237858  HIT:     757868  MISS:    2479990  HIT %:    23.4065  MISS %:    76.5935   MPKI: 49.5998
LLC LOAD      ACCESS:    1056687  HIT:      15230  MISS:    1041457  HIT %:     1.4413  MISS %:    98.5587   MPKI: 20.8291
LLC PREFETCH  ACCESS:    1169125  HIT:      28734  MISS:    1140391  HIT %:    2.45774  MISS %:    97.5423   MPKI: 22.8078
LLC WRITEBACK ACCESS:     479758  HIT:     479356  MISS:        402  HIT %:    99.9162  MISS %:  0.0837922   MPKI: 0.00804
LLC LOAD TRANSLATION ACCESS:     532288  HIT:     234548  MISS:     297740  HIT %:    44.0641  MISS %:    55.9359   MPKI: 5.9548
LLC PREFETCH  REQUESTED:          0  ISSUED:          0  USEFUL:       7467  USELESS:    1132958
LLC USEFUL LOAD PREFETCHES:       7467 PREFETCH ISSUED TO LOWER LEVEL:    1140392  ACCURACY: 0.654775
LLC TIMELY PREFETCHES:       7467 LATE PREFETCHES: 0 DROPPED PREFETCHES: 0
LLC PREFETCHES SAME FILL-ORIGIN LEVEL: 0 DIFFERENT FILL-ORIGIN LEVEL: 0
LLC AVERAGE MISS LATENCY: 235.421 cycles
LLC RQ	ACCESS:    1588975	FORWARD:          0	MERGED:          0	TO_CACHE:    1588975
LLC WQ	ACCESS:     479758	FORWARD:          0	MERGED:          0	TO_CACHE:     479758
LLC PQ	ACCESS:    1169126	FORWARD:          0	MERGED:          0	TO_CACHE:    1169126

LLC Dense regions hint to LLC: 0

RAW hits: 229728
Loads Generated: 13642214
Loads sent to L1D: 13412489
Stores Generated: 3768401
Stores sent to L1D: 3768403
Major fault: 0 Minor fault: 135174
Allocated PAGES: 135174

stream: 
stream:times selected: 3218822
stream:pref_filled: 1173168
stream:pref_useful: 23336
stream:pref_late: 3770
stream:misses: 316352
stream:misses_by_poll: 0

CS: 
CS:times selected: 191657
CS:pref_filled: 32129
CS:pref_useful: 29347
CS:pref_late: 124
CS:misses: 2259
CS:misses_by_poll: 1

CPLX: 
CPLX:times selected: 2993560
CPLX:pref_filled: 200620
CPLX:pref_useful: 741
CPLX:pref_late: 77
CPLX:misses: 957795
CPLX:misses_by_poll: 220

NL_L1: 
NL:times selected: 26880
NL:pref_filled: 15362
NL:pref_useful: 441
NL:pref_late: 84
NL:misses: 12345
NL:misses_by_poll: 1

total selections: 6430919
total_filled: 1180415
total_useful: 43446
total_late: 4086
total_polluted: 222
total_misses_after_warmup: 1162686
conflicts: 197143
Degree Incremented Times: 45985
Degree Decremented Times: 131955

L1 IP Table Write Accesses: 8226686
L1 IP Table Read Accesses: 8029543
L1 RST Write Accesses: 2661488
L1 RST Read Accesses: 5322976
L1 CSPT Write Accesses: 2661488
L1 CSPT Read Accesses: 5133927
L1 RR Filter Tag Write Accesses: 1469565
L1 RR Filter Tag Read Accesses: 86162475
L1 IP Table Tag Write Accesses: 8886267
L1 IP Table Tag Read Accesses: 8886267
L1 RST Tag Write Accesses: 0
L1 RST Tag Read Accesses: 23961854
L1 RR Filter Write Accesses: 0
L1 RR Filter Read Accesses: 3297322
test: 2131917
L2 IP Table Read Accesses: 4482400
L2 IP Table Write Accesses: 3421942
L2 IP Table Tag Read Accesses: 2241534
L2 IP Table Tag Write Accesses: 2241534

DRAM Statistics
 CHANNEL 0
 RQ ROW_BUFFER_HIT:      22271  ROW_BUFFER_MISS:    2457304
 DBUS_CONGESTED:    2284314
 WQ ROW_BUFFER_HIT:     194621  ROW_BUFFER_MISS:     273411  FULL:          0

 AVG_CONGESTED_CYCLE: 64
 All warmup complete: 2
Channel 0 Bank busy for read cycles: 0
Channel 0 Bank busy for write cycles: 0
Channel 0
Rank 0
0banks busy for read cycles: 5168131
0banks busy for write cycles: 12535
1banks busy for read cycles: 95614118
1banks busy for write cycles: 3692964
2banks busy for read cycles: 102519046
2banks busy for write cycles: 4096359
3banks busy for read cycles: 46860231
3banks busy for write cycles: 5165914
4banks busy for read cycles: 12831575
4banks busy for write cycles: 6652767
5banks busy for read cycles: 1479339
5banks busy for write cycles: 8585254
6banks busy for read cycles: 189616
6banks busy for write cycles: 11115984
7banks busy for read cycles: 48245
7banks busy for write cycles: 15896176
8banks busy for read cycles: 14268
8banks busy for write cycles: 24493727

CPU 0 Branch Prediction Accuracy: 94.2493% MPKI: 4.86266 Average ROB Occupancy at Mispredict: 141.257
Branch types
NOT_BRANCH: 45771806 91.5436%
BRANCH_DIRECT_JUMP: 274203 0.548406%
BRANCH_INDIRECT: 44256 0.088512%
BRANCH_CONDITIONAL: 3238332 6.47666%
BRANCH_DIRECT_CALL: 335532 0.671064%
BRANCH_INDIRECT_CALL: 0 0%
BRANCH_RETURN: 335532 0.671064%
BRANCH_OTHER: 0 0%

@sumon_overall_L1D     43446      3949   1136981   1180415   2939112   2939112
@Sumon_Early_by_class_L1D     18008     24484       566        82
@Sumon_Late_by_class_L1D      3666       102        76        82

@Sumon_Early_by_cycle_L1D      1512     11101      3141      4588      1890      4494      3544        33        61       805     12168       109
@Sumon_Late_by_cycle_L1D      2678       922       333        14         2         0         0         0         0         0         0         0
@Sumon_Early_stream_L1D       657       818      2464      4379      1789      4233      3430        28        18        67        81        44
@Sumon_Early_CS_L1D       782     10211       520        21        13        23         4         4        39       726     12080        61
@Sumon_Early_CPLX_L1D        17        48       103        92        51       134        94         1         4        12         6         4
@Sumon_Late_stream_L1D      2485       848       319        14         0         0         0         0         0         0         0         0
@Sumon_Late_CS_L1D        88         8         4         0         2         0         0         0         0         0         0         0
@Sumon_Late_CPLX_L1D        30        40         6         0         0         0         0         0         0         0         0         0
@sumon_overall_L2C      2297         6   1166851   1169119     74432     74432
@Sumon_Early_by_class_L2C      1669       255       334         0
@Sumon_Late_by_class_L2C         0         4         0         0

@Sumon_Early_by_cycle_L2C        18         5         7        13        22        28         3         0         0         1        17      2183
@Sumon_Late_by_cycle_L2C         5         0         1         0         0         0         0         0         0         0         0         0
@Sumon_Early_stream_L2C         0         0         0         0         0         0         0         0         0         1        15      1653
@Sumon_Early_CS_L2C         2         3         6        13        22        28         3         0         0         0         0       178
@Sumon_Early_CPLX_L2C         0         0         0         0         0         0         0         0         0         0         1       333
@Sumon_Late_stream_L2C         0         0         0         0         0         0         0         0         0         0         0         0
@Sumon_Late_CS_L2C         3         0         1         0         0         0         0         0         0         0         0         0
@Sumon_Late_CPLX_L2C         0         0         0         0         0         0         0         0         0         0         0         0
DRAM PAGES: 1048576
Allocated PAGES: 135174
