
*** ChampSim Multicore Out-of-Order Simulator ***

Warmup Instructions: 10000000
Simulation Instructions: 50000000
Number of CPUs: 1
LLC sets: 2048
LLC ways: 16
Off-chip DRAM Size: 4096 MB Channels: 1 Width: 64-bit Data Rate: 400 MT/s
CPU 0 runs traces/graph/Components_70B.trace.gz
.gz
CPU 0 Bimodal branch predictor
BTB has LRU replacement policy
ITLB has LRU replacement policy
DTLB has LRU replacement policy
STLB has LRU replacement policy
L1I has LRU replacement policy
IP Table Entries: 256
L1D has LRU replacement policy
IP_Table L2 entries: 256
L2C has LRU replacement policy
LLC has LRU replacement policy
Heartbeat CPU 0 instructions: 10000000 cycles: 3200675 heartbeat IPC: 3.12434 cumulative IPC: 3.12434 (Simulation time: 0 hr 20 min 54 sec) 

Warmup complete CPU 0 instructions: 10000003 cycles: 3200676 (Simulation time: 0 hr 20 min 54 sec) 

Heartbeat CPU 0 instructions: 20000000 cycles: 155644714 heartbeat IPC: 0.0655978 cumulative IPC: 0.0655978 (Simulation time: 0 hr 58 min 1 sec) 
Heartbeat CPU 0 instructions: 30000000 cycles: 307684480 heartbeat IPC: 0.0657723 cumulative IPC: 0.0656849 (Simulation time: 1 hr 32 min 15 sec) 
Heartbeat CPU 0 instructions: 40000000 cycles: 456141380 heartbeat IPC: 0.0673596 cumulative IPC: 0.0662338 (Simulation time: 1 hr 56 min 33 sec) 
Heartbeat CPU 0 instructions: 50000000 cycles: 605241652 heartbeat IPC: 0.067069 cumulative IPC: 0.0664407 (Simulation time: 2 hr 10 min 9 sec) 
Heartbeat CPU 0 instructions: 60000000 cycles: 757224839 heartbeat IPC: 0.0657968 cumulative IPC: 0.0663109 (Simulation time: 2 hr 16 min 48 sec) 
Finished CPU 0 instructions: 50000001 cycles: 754024164 cumulative IPC: 0.0663109 (Simulation time: 2 hr 16 min 48 sec) 

ChampSim completed all CPUs

Region of Interest Statistics

CPU 0 cumulative IPC: 0.0663109 instructions: 50000001 cycles: 754024164
ITLB TOTAL     ACCESS:    8102816  HIT:    8102816  MISS:          0  HIT %:        100  MISS %:          0   MPKI: 0
ITLB LOAD TRANSLATION ACCESS:    8102816  HIT:    8102816  MISS:          0  HIT %:        100  MISS %:          0   MPKI: 0
ITLB PREFETCH  REQUESTED:          0  ISSUED:          0  USEFUL:          0  USELESS:          0
ITLB USEFUL LOAD PREFETCHES:          0 PREFETCH ISSUED TO LOWER LEVEL:          0  ACCURACY: -nan
ITLB TIMELY PREFETCHES:          0 LATE PREFETCHES: 0 DROPPED PREFETCHES: 0
ITLB PREFETCHES SAME FILL-ORIGIN LEVEL: 0 DIFFERENT FILL-ORIGIN LEVEL: 0
ITLB AVERAGE MISS LATENCY: -nan cycles
ITLB RQ	ACCESS:    8739664	FORWARD:          0	MERGED:     636849	TO_CACHE:    8102815

DTLB TOTAL     ACCESS:   16018314  HIT:    9971286  MISS:    6047028  HIT %:    62.2493  MISS %:    37.7507   MPKI: 120.941
DTLB LOAD TRANSLATION ACCESS:   16018314  HIT:    9971286  MISS:    6047028  HIT %:    62.2493  MISS %:    37.7507   MPKI: 120.941
DTLB PREFETCH  REQUESTED:          0  ISSUED:          0  USEFUL:          0  USELESS:          0
DTLB USEFUL LOAD PREFETCHES:          0 PREFETCH ISSUED TO LOWER LEVEL:          0  ACCURACY: -nan
DTLB TIMELY PREFETCHES:          0 LATE PREFETCHES: 0 DROPPED PREFETCHES: 0
DTLB PREFETCHES SAME FILL-ORIGIN LEVEL: 0 DIFFERENT FILL-ORIGIN LEVEL: 0
DTLB AVERAGE MISS LATENCY: 77.1341 cycles
DTLB RQ	ACCESS:   16264730	FORWARD:          0	MERGED:     226383	TO_CACHE:   16038347

STLB TOTAL     ACCESS:   11693801  HIT:    8683805  MISS:    3009996  HIT %:    74.2599  MISS %:    25.7401   MPKI: 60.1999
STLB LOAD TRANSLATION ACCESS:    6047027  HIT:    3039575  MISS:    3007452  HIT %:    50.2656  MISS %:    49.7344   MPKI: 60.149
STLB TRANSLATION FROM L1D PREFETCHER ACCESS:    5646774  HIT:    5644230  MISS:       2544  HIT %:    99.9549  MISS %:  0.0450523   MPKI: 0.05088
STLB PREFETCH  REQUESTED:          0  ISSUED:          0  USEFUL:       2432  USELESS:        112
STLB USEFUL LOAD PREFETCHES:       2432 PREFETCH ISSUED TO LOWER LEVEL:          0  ACCURACY: inf
STLB TIMELY PREFETCHES:       2432 LATE PREFETCHES: 3 DROPPED PREFETCHES: 0
STLB PREFETCHES SAME FILL-ORIGIN LEVEL: 0 DIFFERENT FILL-ORIGIN LEVEL: 0
STLB AVERAGE MISS LATENCY: 136.546 cycles
STLB RQ	ACCESS:   12638638	FORWARD:          0	MERGED:     944735	TO_CACHE:   11693903

STLB Hit, L1D data hit: 0
STLB Hit, L2C data hit: 0
STLB Hit, LLC data hit: 0
STLB Hit, LLC data miss: 0
STLB STLB hints to L2: 0
L1D TOTAL     ACCESS:   22841703  HIT:   11185751  MISS:   11655952  HIT %:    48.9707  MISS %:    51.0293   MPKI: 233.119
L1D LOAD      ACCESS:   15406349  HIT:    9341572  MISS:    6064777  HIT %:    60.6346  MISS %:    39.3654   MPKI: 121.296
L1D RFO       ACCESS:     848592  HIT:     836890  MISS:      11702  HIT %:     98.621  MISS %:    1.37899   MPKI: 0.23404
L1D PREFETCH  ACCESS:    6586762  HIT:    1007289  MISS:    5579473  HIT %:    15.2926  MISS %:    84.7074   MPKI: 111.589
L1D PREFETCH  REQUESTED:   13185894  ISSUED:   13183230  USEFUL:     608046  USELESS:    4971424
L1D USEFUL LOAD PREFETCHES:     608046 PREFETCH ISSUED TO LOWER LEVEL:    5580096  ACCURACY: 10.8967
L1D TIMELY PREFETCHES:     608046 LATE PREFETCHES: 619 DROPPED PREFETCHES: 0
L1D PREFETCHES SAME FILL-ORIGIN LEVEL: 5580096 DIFFERENT FILL-ORIGIN LEVEL: 0
L1D AVERAGE MISS LATENCY: 21377.9 cycles
L1D RQ	ACCESS:   18003110	FORWARD:          0	MERGED:    2588746	TO_CACHE:   15414364
L1D WQ	ACCESS:     850380	FORWARD:          0	MERGED:         14	TO_CACHE:     850366
L1D PQ	ACCESS:    6591615	FORWARD:          0	MERGED:          0	TO_CACHE:    6591615

L1D UNIQUE REGIONS ACCESSED: 0
L1D REGIONS CONFLICTS: 0
L1D Cross Page Prefetch Requests: 0
L1D Same Page Prefetch Requests: 7757417
L1D ROI Sum of L1D PQ occupancy: 316956896
L1D PREFETCHES PUSHED FROM L2C: 0
L1I TOTAL     ACCESS:    8739665  HIT:    8739665  MISS:          0  HIT %:        100  MISS %:          0   MPKI: 0
L1I LOAD      ACCESS:    8739665  HIT:    8739665  MISS:          0  HIT %:        100  MISS %:          0   MPKI: 0
L1I PREFETCH  REQUESTED:          0  ISSUED:          0  USEFUL:          0  USELESS:          0
L1I USEFUL LOAD PREFETCHES:          0 PREFETCH ISSUED TO LOWER LEVEL:          0  ACCURACY: -nan
L1I TIMELY PREFETCHES:          0 LATE PREFETCHES: 0 DROPPED PREFETCHES: 0
L1I PREFETCHES SAME FILL-ORIGIN LEVEL: 0 DIFFERENT FILL-ORIGIN LEVEL: 0
L1I AVERAGE MISS LATENCY: -nan cycles
L1I RQ	ACCESS:   13293206	FORWARD:          0	MERGED:    4553542	TO_CACHE:    8739664

BTB TOTAL     ACCESS:   11976201  HIT:   11976193  MISS:          8  HIT %:    99.9999  MISS %: 6.67991e-05   MPKI: 0.00016
BTB BRANCH_DIRECT_JUMP	ACCESS:          0  HIT:          0  MISS:          0
BTB BRANCH_INDIRECT	ACCESS:          0  HIT:          0  MISS:          0
BTB BRANCH_CONDITIONAL	ACCESS:   11976201  HIT:   11976193  MISS:          8
BTB BRANCH_DIRECT_CALL	ACCESS:          0  HIT:          0  MISS:          0
BTB BRANCH_INDIRECT_CALL	ACCESS:          0  HIT:          0  MISS:          0
BTB BRANCH_RETURN	ACCESS:          0  HIT:          0  MISS:          0
BTB BRANCH_OTHER ACCESS:          0  HIT:          0  MISS:          0

L2C TOTAL     ACCESS:   16559998  HIT:    6402662  MISS:   10157336  HIT %:    38.6634  MISS %:    61.3366   MPKI: 203.147
L2C LOAD      ACCESS:    6064155  HIT:    1179135  MISS:    4885020  HIT %:    19.4443  MISS %:    80.5557   MPKI: 97.7004
L2C DATA LOAD MPKI: 97.7004
L2C INSTRUCTION LOAD MPKI: 0
L2C RFO       ACCESS:      11702  HIT:         38  MISS:      11664  HIT %:   0.324731  MISS %:    99.6753   MPKI: 0.23328
L2C PREFETCH  ACCESS:    7022606  HIT:    2352811  MISS:    4669795  HIT %:    33.5034  MISS %:    66.4966   MPKI: 93.3959
L2C DATA PREFETCH MPKI: 93.3959
L2C INSTRUCTION PREFETCH MPKI: 0
L2C WRITEBACK ACCESS:      40958  HIT:      40508  MISS:        450  HIT %:    98.9013  MISS %:    1.09869   MPKI: 0.009
L2C LOAD TRANSLATION ACCESS:    3417786  HIT:    2827421  MISS:     590365  HIT %:    82.7267  MISS %:    17.2733   MPKI: 11.8073
L2C TRANSLATION FROM L1D PREFETCHER ACCESS:       2791  HIT:       2749  MISS:         42  HIT %:    98.4952  MISS %:    1.50484   MPKI: 0.00084
L2C PREFETCH  REQUESTED:    1536388  ISSUED:    1536383  USEFUL:     326217  USELESS:    4343440
L2C USEFUL LOAD PREFETCHES:     326217 PREFETCH ISSUED TO LOWER LEVEL:    4669816  ACCURACY: 6.98565
L2C TIMELY PREFETCHES:     326217 LATE PREFETCHES: 20 DROPPED PREFETCHES: 0
L2C PREFETCHES SAME FILL-ORIGIN LEVEL: 502343 DIFFERENT FILL-ORIGIN LEVEL: 0
L2C AVERAGE MISS LATENCY: 453.375 cycles
L2C RQ	ACCESS:    9496435	FORWARD:          0	MERGED:          0	TO_CACHE:    9496433
L2C WQ	ACCESS:      40958	FORWARD:          7	MERGED:          0	TO_CACHE:      40958
L2C PQ	ACCESS:    7116472	FORWARD:          0	MERGED:      83057	TO_CACHE:    7033410

L2C Instructions Evicting Data 0
L2C Translations Evicting Data 563935
L2C Data Evicting Data 9002608
L2C Instructions Evicting Instructions 0
L2C Translations Evicting Instructions 0
L2C Data Evicting Instructions 0
L2C Instructions Evicting Translations 0
L2C Translations Evicting Translations 26472
L2C Data Evicting Translations 563871
L2C Dense regions hint from L2: 0
PSCL5 TOTAL     ACCESS:    3009995  HIT:    3009995  MISS:          0  HIT %:        100  MISS %:          0   MPKI: 0
PSCL5 LOAD TRANSLATION ACCESS:    3007448  HIT:    3007448  MISS:          0  HIT %:        100  MISS %:          0   MPKI: 0
PSCL5 TRANSLATION FROM L1D PREFETCHER ACCESS:       2547  HIT:       2547  MISS:          0  HIT %:        100  MISS %:          0   MPKI: 0
PSCL5 PREFETCH  REQUESTED:          0  ISSUED:          0  USEFUL:          0  USELESS:          0
PSCL5 USEFUL LOAD PREFETCHES:          0 PREFETCH ISSUED TO LOWER LEVEL:          0  ACCURACY: -nan
PSCL5 TIMELY PREFETCHES:          0 LATE PREFETCHES: 0 DROPPED PREFETCHES: 0
PSCL5 PREFETCHES SAME FILL-ORIGIN LEVEL: 0 DIFFERENT FILL-ORIGIN LEVEL: 0

PSCL4 TOTAL     ACCESS:    3009995  HIT:    3009995  MISS:          0  HIT %:        100  MISS %:          0   MPKI: 0
PSCL4 LOAD TRANSLATION ACCESS:    3007448  HIT:    3007448  MISS:          0  HIT %:        100  MISS %:          0   MPKI: 0
PSCL4 TRANSLATION FROM L1D PREFETCHER ACCESS:       2547  HIT:       2547  MISS:          0  HIT %:        100  MISS %:          0   MPKI: 0
PSCL4 PREFETCH  REQUESTED:          0  ISSUED:          0  USEFUL:          0  USELESS:          0
PSCL4 USEFUL LOAD PREFETCHES:          0 PREFETCH ISSUED TO LOWER LEVEL:          0  ACCURACY: -nan
PSCL4 TIMELY PREFETCHES:          0 LATE PREFETCHES: 0 DROPPED PREFETCHES: 0
PSCL4 PREFETCHES SAME FILL-ORIGIN LEVEL: 0 DIFFERENT FILL-ORIGIN LEVEL: 0

PSCL3 TOTAL     ACCESS:    3009995  HIT:    3009995  MISS:          0  HIT %:        100  MISS %:          0   MPKI: 0
PSCL3 LOAD TRANSLATION ACCESS:    3007448  HIT:    3007448  MISS:          0  HIT %:        100  MISS %:          0   MPKI: 0
PSCL3 TRANSLATION FROM L1D PREFETCHER ACCESS:       2547  HIT:       2547  MISS:          0  HIT %:        100  MISS %:          0   MPKI: 0
PSCL3 PREFETCH  REQUESTED:          0  ISSUED:          0  USEFUL:          0  USELESS:          0
PSCL3 USEFUL LOAD PREFETCHES:          0 PREFETCH ISSUED TO LOWER LEVEL:          0  ACCURACY: -nan
PSCL3 TIMELY PREFETCHES:          0 LATE PREFETCHES: 0 DROPPED PREFETCHES: 0
PSCL3 PREFETCHES SAME FILL-ORIGIN LEVEL: 0 DIFFERENT FILL-ORIGIN LEVEL: 0

PSCL2 TOTAL     ACCESS:    3009995  HIT:    2599398  MISS:     410597  HIT %:    86.3589  MISS %:    13.6411   MPKI: 8.21194
PSCL2 LOAD TRANSLATION ACCESS:    3007692  HIT:    2597095  MISS:     410597  HIT %:    86.3484  MISS %:    13.6516   MPKI: 8.21194
PSCL2 TRANSLATION FROM L1D PREFETCHER ACCESS:       2303  HIT:       2303  MISS:          0  HIT %:        100  MISS %:          0   MPKI: 0
PSCL2 PREFETCH  REQUESTED:          0  ISSUED:          0  USEFUL:          0  USELESS:          0
PSCL2 USEFUL LOAD PREFETCHES:          0 PREFETCH ISSUED TO LOWER LEVEL:          0  ACCURACY: -nan
PSCL2 TIMELY PREFETCHES:          0 LATE PREFETCHES: 0 DROPPED PREFETCHES: 0
PSCL2 PREFETCHES SAME FILL-ORIGIN LEVEL: 0 DIFFERENT FILL-ORIGIN LEVEL: 0

LLC TOTAL     ACCESS:   10197781  HIT:    2650660  MISS:    7547121  HIT %:    25.9925  MISS %:    74.0075   MPKI: 150.942
LLC LOAD      ACCESS:    4884999  HIT:    1185972  MISS:    3699027  HIT %:    24.2778  MISS %:    75.7222   MPKI: 73.9805
LLC RFO       ACCESS:      11664  HIT:          0  MISS:      11664  HIT %:          0  MISS %:        100   MPKI: 0.23328
LLC PREFETCH  ACCESS:    4669815  HIT:     997902  MISS:    3671913  HIT %:    21.3692  MISS %:    78.6308   MPKI: 73.4383
LLC WRITEBACK ACCESS:      40896  HIT:      40600  MISS:        296  HIT %:    99.2762  MISS %:   0.723787   MPKI: 0.00592
LLC LOAD TRANSLATION ACCESS:     590365  HIT:     426159  MISS:     164206  HIT %:    72.1857  MISS %:    27.8143   MPKI: 3.28412
LLC TRANSLATION FROM L1D PREFETCHER ACCESS:         42  HIT:         27  MISS:         15  HIT %:    64.2857  MISS %:    35.7143   MPKI: 0.0003
LLC PREFETCH  REQUESTED:          0  ISSUED:          0  USEFUL:     352120  USELESS:    3319324
LLC USEFUL LOAD PREFETCHES:     352120 PREFETCH ISSUED TO LOWER LEVEL:    3671914  ACCURACY: 9.58955
LLC TIMELY PREFETCHES:     352120 LATE PREFETCHES: 0 DROPPED PREFETCHES: 0
LLC PREFETCHES SAME FILL-ORIGIN LEVEL: 0 DIFFERENT FILL-ORIGIN LEVEL: 0
LLC AVERAGE MISS LATENCY: 569.735 cycles
LLC RQ	ACCESS:    5487070	FORWARD:          0	MERGED:          0	TO_CACHE:    5487069
LLC WQ	ACCESS:      40896	FORWARD:          1	MERGED:          0	TO_CACHE:      40896
LLC PQ	ACCESS:    4669816	FORWARD:          0	MERGED:          0	TO_CACHE:    4669816

LLC Dense regions hint to LLC: 0

RAW hits: 33
Loads Generated: 18003144
Loads sent to L1D: 18003110
Stores Generated: 850378
Stores sent to L1D: 850380
Major fault: 0 Minor fault: 30493
Allocated PAGES: 30493

stream: 
stream:times selected: 7841714
stream:pref_filled: 5780153
stream:pref_useful: 101264
stream:pref_late: 2413
stream:misses: 2133878
stream:misses_by_poll: 0

CS: 
CS:times selected: 740296
CS:pref_filled: 646792
CS:pref_useful: 605009
CS:pref_late: 1461
CS:misses: 44917
CS:misses_by_poll: 761

CPLX: 
CPLX:times selected: 6834428
CPLX:pref_filled: 133700
CPLX:pref_useful: 2873
CPLX:pref_late: 29
CPLX:misses: 5197425
CPLX:misses_by_poll: 56

NL_L1: 
NL:times selected: 9242
NL:pref_filled: 6830
NL:pref_useful: 186
NL:pref_late: 10
NL:misses: 9347
NL:misses_by_poll: 0

total selections: 15425680
total_filled: 5579473
total_useful: 608046
total_late: 3947
total_polluted: 817
total_misses_after_warmup: 6072802
conflicts: 0
Degree Incremented Times: 68600
Degree Decremented Times: 148267

L1 IP Table Write Accesses: 15414374
L1 IP Table Read Accesses: 15414374
L1 RST Write Accesses: 6480400
L1 RST Read Accesses: 12960800
L1 CSPT Write Accesses: 6480400
L1 CSPT Read Accesses: 12114233
L1 RR Filter Tag Write Accesses: 6594279
L1 RR Filter Tag Read Accesses: 241224127
L1 IP Table Tag Write Accesses: 15414374
L1 IP Table Tag Read Accesses: 15414374
L1 RST Tag Write Accesses: 0
L1 RST Tag Read Accesses: 57890251
L1 RR Filter Write Accesses: 0
L1 RR Filter Read Accesses: 8338741
test: 5116002
L2 IP Table Read Accesses: 23114074
L2 IP Table Write Accesses: 17049919
L2 IP Table Tag Read Accesses: 11557037
L2 IP Table Tag Write Accesses: 11557037

DRAM Statistics
 CHANNEL 0
 RQ ROW_BUFFER_HIT:     171575  ROW_BUFFER_MISS:    7375177
 DBUS_CONGESTED:    6451016
 WQ ROW_BUFFER_HIT:      16503  ROW_BUFFER_MISS:      24393  FULL:          0

 AVG_CONGESTED_CYCLE: 71
 All warmup complete: 2
Channel 0 Bank busy for read cycles: 0
Channel 0 Bank busy for write cycles: 0
Channel 0
Rank 0
0banks busy for read cycles: 58090451
0banks busy for write cycles: 25390
1banks busy for read cycles: 118114086
1banks busy for write cycles: 12884012
2banks busy for read cycles: 130697138
2banks busy for write cycles: 3601079
3banks busy for read cycles: 112521659
3banks busy for write cycles: 1226923
4banks busy for read cycles: 99700438
4banks busy for write cycles: 527401
5banks busy for read cycles: 85412918
5banks busy for write cycles: 300492
6banks busy for read cycles: 71469169
6banks busy for write cycles: 257233
7banks busy for read cycles: 44534784
7banks busy for write cycles: 241100
8banks busy for read cycles: 14042683
8banks busy for write cycles: 377209

CPU 0 Branch Prediction Accuracy: 90.6795% MPKI: 22.3251 Average ROB Occupancy at Mispredict: 23.276
Branch types
NOT_BRANCH: 38023266 76.0465%
BRANCH_DIRECT_JUMP: 0 0%
BRANCH_INDIRECT: 0 0%
BRANCH_CONDITIONAL: 11976371 23.9527%
BRANCH_DIRECT_CALL: 0 0%
BRANCH_INDIRECT_CALL: 0 0%
BRANCH_RETURN: 0 0%
BRANCH_OTHER: 0 0%

@sumon_overall_L1D    608046       619   4971424   5579473  13183230  13185894
@Sumon_Early_by_class_L1D     82962    522606      2478         0
@Sumon_Late_by_class_L1D       458       142        14         0

@Sumon_Early_by_cycle_L1D       457       440      1166      1599      2116     26391     80107    207490    208467     61675     14172      3966
@Sumon_Late_by_cycle_L1D       479        40        55        17        11        17         0         0         0         0         0         0
@Sumon_Early_stream_L1D       185       203       508       554       625      4621      8950     14609     18561     21099      9399      3648
@Sumon_Early_CS_L1D       267       231       650      1036      1482     21655     70926    192540    189442     39862      4385       130
@Sumon_Early_CPLX_L1D         5         6         8         9         9       115       231       341       464       714       388       188
@Sumon_Late_stream_L1D       362        19        36        16         9        16         0         0         0         0         0         0
@Sumon_Late_CS_L1D       107        17        16         1         1         0         0         0         0         0         0         0
@Sumon_Late_CPLX_L1D         5         4         3         0         1         1         0         0         0         0         0         0
@sumon_overall_L2C    326217        20   4343440   4669837   1536383   1536388
@Sumon_Early_by_class_L2C    304165     14712      7340         0
@Sumon_Late_by_class_L2C         0        18         0         0

@Sumon_Early_by_cycle_L2C         3         7        11        15         8        86       206      1382      7981     35417     57811    223290
@Sumon_Late_by_cycle_L2C         8         1         9         1         0         1         0         0         0         0         0         0
@Sumon_Early_stream_L2C         0         0         0         0         0         3        39       974      6885     32187     52666    211411
@Sumon_Early_CS_L2C         3         7        11        15         8        83       166       397       980      2707      4159      6176
@Sumon_Early_CPLX_L2C         0         0         0         0         0         0         1        11       116       523       986      5703
@Sumon_Late_stream_L2C         0         0         0         0         0         0         0         0         0         0         0         0
@Sumon_Late_CS_L2C         6         1         9         1         0         1         0         0         0         0         0         0
@Sumon_Late_CPLX_L2C         0         0         0         0         0         0         0         0         0         0         0         0
DRAM PAGES: 1048576
Allocated PAGES: 30493
