
*** ChampSim Multicore Out-of-Order Simulator ***

Warmup Instructions: 10000000
Simulation Instructions: 50000000
Number of CPUs: 1
LLC sets: 2048
LLC ways: 16
Off-chip DRAM Size: 4096 MB Channels: 1 Width: 64-bit Data Rate: 400 MT/s
CPU 0 runs traces/graph/sssp-5.trace.gz
.gz
CPU 0 Bimodal branch predictor
BTB has LRU replacement policy
ITLB has LRU replacement policy
DTLB has LRU replacement policy
STLB has LRU replacement policy
L1I has LRU replacement policy
IP Table Entries: 256
L1D has LRU replacement policy
IP_Table L2 entries: 256
L2C has LRU replacement policy
LLC has LRU replacement policy
Heartbeat CPU 0 instructions: 10000001 cycles: 3078264 heartbeat IPC: 3.24858 cumulative IPC: 3.24858 (Simulation time: 0 hr 14 min 3 sec) 

Warmup complete CPU 0 instructions: 10000001 cycles: 3078264 (Simulation time: 0 hr 14 min 3 sec) 

Heartbeat CPU 0 instructions: 20000000 cycles: 58080222 heartbeat IPC: 0.181812 cumulative IPC: 0.181812 (Simulation time: 0 hr 32 min 19 sec) 
Heartbeat CPU 0 instructions: 30000003 cycles: 110550596 heartbeat IPC: 0.190584 cumulative IPC: 0.186094 (Simulation time: 0 hr 51 min 4 sec) 
Heartbeat CPU 0 instructions: 40000000 cycles: 161074730 heartbeat IPC: 0.197925 cumulative IPC: 0.189878 (Simulation time: 1 hr 10 min 15 sec) 
Heartbeat CPU 0 instructions: 50000003 cycles: 212651411 heartbeat IPC: 0.193886 cumulative IPC: 0.190864 (Simulation time: 1 hr 28 min 28 sec) 
Heartbeat CPU 0 instructions: 60000002 cycles: 261484796 heartbeat IPC: 0.204778 cumulative IPC: 0.193494 (Simulation time: 1 hr 43 min 40 sec) 
Finished CPU 0 instructions: 50000001 cycles: 258406532 cumulative IPC: 0.193494 (Simulation time: 1 hr 43 min 40 sec) 

ChampSim completed all CPUs

Region of Interest Statistics

CPU 0 cumulative IPC: 0.193494 instructions: 50000001 cycles: 258406532
ITLB TOTAL     ACCESS:    6274537  HIT:    6274537  MISS:          0  HIT %:        100  MISS %:          0   MPKI: 0
ITLB LOAD TRANSLATION ACCESS:    6274537  HIT:    6274537  MISS:          0  HIT %:        100  MISS %:          0   MPKI: 0
ITLB PREFETCH  REQUESTED:          0  ISSUED:          0  USEFUL:          0  USELESS:          0
ITLB USEFUL LOAD PREFETCHES:          0 PREFETCH ISSUED TO LOWER LEVEL:          0  ACCURACY: -nan
ITLB TIMELY PREFETCHES:          0 LATE PREFETCHES: 0 DROPPED PREFETCHES: 0
ITLB PREFETCHES SAME FILL-ORIGIN LEVEL: 0 DIFFERENT FILL-ORIGIN LEVEL: 0
ITLB AVERAGE MISS LATENCY: -nan cycles
ITLB RQ	ACCESS:    6672630	FORWARD:          0	MERGED:     398094	TO_CACHE:    6274536

DTLB TOTAL     ACCESS:   12920314  HIT:   11944892  MISS:     975422  HIT %:    92.4505  MISS %:    7.54952   MPKI: 19.5084
DTLB LOAD TRANSLATION ACCESS:   12920314  HIT:   11944892  MISS:     975422  HIT %:    92.4505  MISS %:    7.54952   MPKI: 19.5084
DTLB PREFETCH  REQUESTED:          0  ISSUED:          0  USEFUL:          0  USELESS:          0
DTLB USEFUL LOAD PREFETCHES:          0 PREFETCH ISSUED TO LOWER LEVEL:          0  ACCURACY: -nan
DTLB TIMELY PREFETCHES:          0 LATE PREFETCHES: 0 DROPPED PREFETCHES: 0
DTLB PREFETCHES SAME FILL-ORIGIN LEVEL: 0 DIFFERENT FILL-ORIGIN LEVEL: 0
DTLB AVERAGE MISS LATENCY: 11.8595 cycles
DTLB RQ	ACCESS:   13376586	FORWARD:          0	MERGED:     433587	TO_CACHE:   12942999

STLB TOTAL     ACCESS:    3265371  HIT:    3254600  MISS:      10771  HIT %:    99.6701  MISS %:   0.329855   MPKI: 0.21542
STLB LOAD TRANSLATION ACCESS:     975422  HIT:     964651  MISS:      10771  HIT %:    98.8958  MISS %:    1.10424   MPKI: 0.21542
STLB TRANSLATION FROM L1D PREFETCHER ACCESS:    2289949  HIT:    2289949  MISS:          0  HIT %:        100  MISS %:          0   MPKI: 0
STLB PREFETCH  REQUESTED:          0  ISSUED:          0  USEFUL:          0  USELESS:          0
STLB USEFUL LOAD PREFETCHES:          0 PREFETCH ISSUED TO LOWER LEVEL:          0  ACCURACY: -nan
STLB TIMELY PREFETCHES:          0 LATE PREFETCHES: 0 DROPPED PREFETCHES: 0
STLB PREFETCHES SAME FILL-ORIGIN LEVEL: 0 DIFFERENT FILL-ORIGIN LEVEL: 0
STLB AVERAGE MISS LATENCY: 249.253 cycles
STLB RQ	ACCESS:    3741346	FORWARD:          0	MERGED:     475975	TO_CACHE:    3265371

STLB Hit, L1D data hit: 0
STLB Hit, L2C data hit: 0
STLB Hit, LLC data hit: 0
STLB Hit, LLC data miss: 0
STLB STLB hints to L2: 0
L1D TOTAL     ACCESS:   15818079  HIT:   11370260  MISS:    4447819  HIT %:    71.8814  MISS %:    28.1186   MPKI: 88.9564
L1D LOAD      ACCESS:   11895525  HIT:    9913337  MISS:    1982188  HIT %:    83.3367  MISS %:    16.6633   MPKI: 39.6438
L1D RFO       ACCESS:    1317009  HIT:    1025875  MISS:     291134  HIT %:    77.8943  MISS %:    22.1057   MPKI: 5.82268
L1D PREFETCH  ACCESS:    2605545  HIT:     431048  MISS:    2174497  HIT %:    16.5435  MISS %:    83.4565   MPKI: 43.4899
L1D PREFETCH  REQUESTED:    5531853  ISSUED:    5531853  USEFUL:     336934  USELESS:    1837484
L1D USEFUL LOAD PREFETCHES:     336934 PREFETCH ISSUED TO LOWER LEVEL:    2250820  ACCURACY: 14.9694
L1D TIMELY PREFETCHES:     336934 LATE PREFETCHES: 75887 DROPPED PREFETCHES: 0
L1D PREFETCHES SAME FILL-ORIGIN LEVEL: 2250820 DIFFERENT FILL-ORIGIN LEVEL: 0
L1D AVERAGE MISS LATENCY: 2.33088e+06 cycles
L1D RQ	ACCESS:   17920699	FORWARD:          0	MERGED:    5965467	TO_CACHE:   11954926
L1D WQ	ACCESS:    1422672	FORWARD:        311	MERGED:       1012	TO_CACHE:    1421660
L1D PQ	ACCESS:    2765929	FORWARD:          0	MERGED:          0	TO_CACHE:    2765924

L1D UNIQUE REGIONS ACCESSED: 0
L1D REGIONS CONFLICTS: 0
L1D Cross Page Prefetch Requests: 0
L1D Same Page Prefetch Requests: 3218591
L1D ROI Sum of L1D PQ occupancy: 41422596
L1D PREFETCHES PUSHED FROM L2C: 0
L1I TOTAL     ACCESS:    6672631  HIT:    6672630  MISS:          1  HIT %:        100  MISS %: 1.49866e-05   MPKI: 2e-05
L1I LOAD      ACCESS:    6672631  HIT:    6672630  MISS:          1  HIT %:        100  MISS %: 1.49866e-05   MPKI: 2e-05
L1I PREFETCH  REQUESTED:          0  ISSUED:          0  USEFUL:          0  USELESS:          0
L1I USEFUL LOAD PREFETCHES:          0 PREFETCH ISSUED TO LOWER LEVEL:          0  ACCURACY: -nan
L1I TIMELY PREFETCHES:          0 LATE PREFETCHES: 0 DROPPED PREFETCHES: 0
L1I PREFETCHES SAME FILL-ORIGIN LEVEL: 0 DIFFERENT FILL-ORIGIN LEVEL: 0
L1I AVERAGE MISS LATENCY: 214 cycles
L1I RQ	ACCESS:    9326909	FORWARD:          0	MERGED:    2654279	TO_CACHE:    6672630

BTB TOTAL     ACCESS:    6900678  HIT:    6900518  MISS:        160  HIT %:    99.9977  MISS %: 0.00231861   MPKI: 0.0032
BTB BRANCH_DIRECT_JUMP	ACCESS:    2014428  HIT:    2014383  MISS:         45
BTB BRANCH_INDIRECT	ACCESS:          0  HIT:          0  MISS:          0
BTB BRANCH_CONDITIONAL	ACCESS:    4881598  HIT:    4881511  MISS:         87
BTB BRANCH_DIRECT_CALL	ACCESS:       2326  HIT:       2315  MISS:         11
BTB BRANCH_INDIRECT_CALL	ACCESS:          0  HIT:          0  MISS:          0
BTB BRANCH_RETURN	ACCESS:       2326  HIT:       2309  MISS:         17
BTB BRANCH_OTHER ACCESS:          0  HIT:          0  MISS:          0

L2C TOTAL     ACCESS:    5970060  HIT:    2208380  MISS:    3761680  HIT %:    36.9909  MISS %:    63.0091   MPKI: 75.2336
L2C LOAD      ACCESS:    1906299  HIT:     284844  MISS:    1621455  HIT %:    14.9423  MISS %:    85.0577   MPKI: 32.4291
L2C DATA LOAD MPKI: 32.4291
L2C INSTRUCTION LOAD MPKI: 2e-05
L2C RFO       ACCESS:     291091  HIT:     202515  MISS:      88576  HIT %:     69.571  MISS %:     30.429   MPKI: 1.77152
L2C PREFETCH  ACCESS:    2962625  HIT:     921983  MISS:    2040642  HIT %:    31.1205  MISS %:    68.8795   MPKI: 40.8128
L2C DATA PREFETCH MPKI: 40.8128
L2C INSTRUCTION PREFETCH MPKI: 0
L2C WRITEBACK ACCESS:     797637  HIT:     794234  MISS:       3403  HIT %:    99.5734  MISS %:   0.426635   MPKI: 0.06806
L2C LOAD TRANSLATION ACCESS:      12408  HIT:       4804  MISS:       7604  HIT %:     38.717  MISS %:     61.283   MPKI: 0.15208
L2C PREFETCH  REQUESTED:     888168  ISSUED:     887984  USEFUL:      45363  USELESS:    1995717
L2C USEFUL LOAD PREFETCHES:      45363 PREFETCH ISSUED TO LOWER LEVEL:    2056534  ACCURACY: 2.2058
L2C TIMELY PREFETCHES:      45363 LATE PREFETCHES: 15893 DROPPED PREFETCHES: 0
L2C PREFETCHES SAME FILL-ORIGIN LEVEL: 316870 DIFFERENT FILL-ORIGIN LEVEL: 0
L2C AVERAGE MISS LATENCY: 242.583 cycles
L2C RQ	ACCESS:    2209834	FORWARD:          0	MERGED:          0	TO_CACHE:    2209797
L2C WQ	ACCESS:     797637	FORWARD:         49	MERGED:          0	TO_CACHE:     797637
L2C PQ	ACCESS:    3138376	FORWARD:          0	MERGED:      96115	TO_CACHE:    3042249

L2C Instructions Evicting Data 1
L2C Translations Evicting Data 7577
L2C Data Evicting Data 3743103
L2C Instructions Evicting Instructions 0
L2C Translations Evicting Instructions 0
L2C Data Evicting Instructions 1
L2C Instructions Evicting Translations 0
L2C Translations Evicting Translations 27
L2C Data Evicting Translations 7568
L2C Dense regions hint from L2: 0
PSCL5 TOTAL     ACCESS:      10771  HIT:      10771  MISS:          0  HIT %:        100  MISS %:          0   MPKI: 0
PSCL5 LOAD TRANSLATION ACCESS:      10771  HIT:      10771  MISS:          0  HIT %:        100  MISS %:          0   MPKI: 0
PSCL5 PREFETCH  REQUESTED:          0  ISSUED:          0  USEFUL:          0  USELESS:          0
PSCL5 USEFUL LOAD PREFETCHES:          0 PREFETCH ISSUED TO LOWER LEVEL:          0  ACCURACY: -nan
PSCL5 TIMELY PREFETCHES:          0 LATE PREFETCHES: 0 DROPPED PREFETCHES: 0
PSCL5 PREFETCHES SAME FILL-ORIGIN LEVEL: 0 DIFFERENT FILL-ORIGIN LEVEL: 0

PSCL4 TOTAL     ACCESS:      10771  HIT:      10771  MISS:          0  HIT %:        100  MISS %:          0   MPKI: 0
PSCL4 LOAD TRANSLATION ACCESS:      10771  HIT:      10771  MISS:          0  HIT %:        100  MISS %:          0   MPKI: 0
PSCL4 PREFETCH  REQUESTED:          0  ISSUED:          0  USEFUL:          0  USELESS:          0
PSCL4 USEFUL LOAD PREFETCHES:          0 PREFETCH ISSUED TO LOWER LEVEL:          0  ACCURACY: -nan
PSCL4 TIMELY PREFETCHES:          0 LATE PREFETCHES: 0 DROPPED PREFETCHES: 0
PSCL4 PREFETCHES SAME FILL-ORIGIN LEVEL: 0 DIFFERENT FILL-ORIGIN LEVEL: 0

PSCL3 TOTAL     ACCESS:      10771  HIT:      10771  MISS:          0  HIT %:        100  MISS %:          0   MPKI: 0
PSCL3 LOAD TRANSLATION ACCESS:      10771  HIT:      10771  MISS:          0  HIT %:        100  MISS %:          0   MPKI: 0
PSCL3 PREFETCH  REQUESTED:          0  ISSUED:          0  USEFUL:          0  USELESS:          0
PSCL3 USEFUL LOAD PREFETCHES:          0 PREFETCH ISSUED TO LOWER LEVEL:          0  ACCURACY: -nan
PSCL3 TIMELY PREFETCHES:          0 LATE PREFETCHES: 0 DROPPED PREFETCHES: 0
PSCL3 PREFETCHES SAME FILL-ORIGIN LEVEL: 0 DIFFERENT FILL-ORIGIN LEVEL: 0

PSCL2 TOTAL     ACCESS:      10771  HIT:       9111  MISS:       1660  HIT %:    84.5882  MISS %:    15.4118   MPKI: 0.0332
PSCL2 LOAD TRANSLATION ACCESS:      10771  HIT:       9111  MISS:       1660  HIT %:    84.5882  MISS %:    15.4118   MPKI: 0.0332
PSCL2 PREFETCH  REQUESTED:          0  ISSUED:          0  USEFUL:          0  USELESS:          0
PSCL2 USEFUL LOAD PREFETCHES:          0 PREFETCH ISSUED TO LOWER LEVEL:          0  ACCURACY: -nan
PSCL2 TIMELY PREFETCHES:          0 LATE PREFETCHES: 0 DROPPED PREFETCHES: 0
PSCL2 PREFETCHES SAME FILL-ORIGIN LEVEL: 0 DIFFERENT FILL-ORIGIN LEVEL: 0

LLC TOTAL     ACCESS:    4265090  HIT:    2143654  MISS:    2121436  HIT %:    50.2605  MISS %:    49.7395   MPKI: 42.4287
LLC LOAD      ACCESS:    1605561  HIT:     802601  MISS:     802960  HIT %:    49.9888  MISS %:    50.0112   MPKI: 16.0592
LLC RFO       ACCESS:      88576  HIT:      32829  MISS:      55747  HIT %:    37.0631  MISS %:    62.9369   MPKI: 1.11494
LLC PREFETCH  ACCESS:    2056534  HIT:     804489  MISS:    1252045  HIT %:    39.1187  MISS %:    60.8813   MPKI: 25.0409
LLC WRITEBACK ACCESS:     506815  HIT:     502479  MISS:       4336  HIT %:    99.1445  MISS %:   0.855539   MPKI: 0.08672
LLC LOAD TRANSLATION ACCESS:       7604  HIT:       1256  MISS:       6348  HIT %:    16.5176  MISS %:    83.4824   MPKI: 0.12696
LLC PREFETCH  REQUESTED:          0  ISSUED:          0  USEFUL:     156922  USELESS:    1096068
LLC USEFUL LOAD PREFETCHES:     156922 PREFETCH ISSUED TO LOWER LEVEL:    1252045  ACCURACY: 12.5333
LLC TIMELY PREFETCHES:     156922 LATE PREFETCHES: 0 DROPPED PREFETCHES: 0
LLC PREFETCHES SAME FILL-ORIGIN LEVEL: 0 DIFFERENT FILL-ORIGIN LEVEL: 0
LLC AVERAGE MISS LATENCY: 378.964 cycles
LLC RQ	ACCESS:    1701741	FORWARD:          0	MERGED:          0	TO_CACHE:    1701740
LLC WQ	ACCESS:     506815	FORWARD:          2	MERGED:          0	TO_CACHE:     506815
LLC PQ	ACCESS:    2056534	FORWARD:          0	MERGED:          0	TO_CACHE:    2056533

LLC Dense regions hint to LLC: 0

RAW hits: 8072
Loads Generated: 17928774
Loads sent to L1D: 17920699
Stores Generated: 1422671
Stores sent to L1D: 1422672
Major fault: 0 Minor fault: 9306
Allocated PAGES: 9306

stream: 
stream:times selected: 3956502
stream:pref_filled: 1989484
stream:pref_useful: 91632
stream:pref_late: 52979
stream:misses: 455820
stream:misses_by_poll: 0

CS: 
CS:times selected: 724097
CS:pref_filled: 336911
CS:pref_useful: 290014
CS:pref_late: 22732
CS:misses: 73218
CS:misses_by_poll: 476

CPLX: 
CPLX:times selected: 3219374
CPLX:pref_filled: 120463
CPLX:pref_useful: 8046
CPLX:pref_late: 2609
CPLX:misses: 1722683
CPLX:misses_by_poll: 108

NL_L1: 
NL:times selected: 15113
NL:pref_filled: 12440
NL:pref_useful: 418
NL:pref_late: 153
NL:misses: 13243
NL:misses_by_poll: 1

total selections: 7915086
total_filled: 2174497
total_useful: 336934
total_late: 79198
total_polluted: 585
total_misses_after_warmup: 2041589
conflicts: 1683
Degree Incremented Times: 54382
Degree Decremented Times: 146381

L1 IP Table Write Accesses: 11945136
L1 IP Table Read Accesses: 11943453
L1 RST Write Accesses: 3369133
L1 RST Read Accesses: 6738266
L1 CSPT Write Accesses: 3369133
L1 CSPT Read Accesses: 6076747
L1 RR Filter Tag Write Accesses: 2765929
L1 RR Filter Tag Read Accesses: 141109755
L1 IP Table Tag Write Accesses: 11954926
L1 IP Table Tag Read Accesses: 11954926
L1 RST Tag Write Accesses: 0
L1 RST Tag Read Accesses: 29838781
L1 RR Filter Write Accesses: 0
L1 RR Filter Read Accesses: 5430371
test: 885619
L2 IP Table Read Accesses: 8192174
L2 IP Table Write Accesses: 6288252
L2 IP Table Tag Read Accesses: 4097002
L2 IP Table Tag Write Accesses: 4097002

DRAM Statistics
 CHANNEL 0
 RQ ROW_BUFFER_HIT:     493929  ROW_BUFFER_MISS:    1622300
 DBUS_CONGESTED:    2334458
 WQ ROW_BUFFER_HIT:     319544  ROW_BUFFER_MISS:     127104  FULL:          0

 AVG_CONGESTED_CYCLE: 70
 All warmup complete: 2
Channel 0 Bank busy for read cycles: 0
Channel 0 Bank busy for write cycles: 0
Channel 0
Rank 0
0banks busy for read cycles: 1028972
0banks busy for write cycles: 2909
1banks busy for read cycles: 52043128
1banks busy for write cycles: 940586
2banks busy for read cycles: 47991018
2banks busy for write cycles: 1020711
3banks busy for read cycles: 34051412
3banks busy for write cycles: 1206588
4banks busy for read cycles: 26167062
4banks busy for write cycles: 1517561
5banks busy for read cycles: 17098298
5banks busy for write cycles: 2279717
6banks busy for read cycles: 9900536
6banks busy for write cycles: 4577767
7banks busy for read cycles: 4789778
7banks busy for write cycles: 12781921
8banks busy for read cycles: 5502959
8banks busy for write cycles: 35505610

CPU 0 Branch Prediction Accuracy: 93.3948% MPKI: 9.72582 Average ROB Occupancy at Mispredict: 64.4681
Branch types
NOT_BRANCH: 42637516 85.275%
BRANCH_DIRECT_JUMP: 2014428 4.02886%
BRANCH_INDIRECT: 0 0%
BRANCH_CONDITIONAL: 5343115 10.6862%
BRANCH_DIRECT_CALL: 2326 0.004652%
BRANCH_INDIRECT_CALL: 0 0%
BRANCH_RETURN: 2326 0.004652%
BRANCH_OTHER: 0 0%

@sumon_overall_L1D    336934     75887   1837484   2174497   5531853   5531853
@Sumon_Early_by_class_L1D     76199    253798      6638       137
@Sumon_Late_by_class_L1D     51094     21557      2567       137

@Sumon_Early_by_cycle_L1D     26589     13102     15418      5781      3411     86770    152166     10078      7731     12090      3368       430
@Sumon_Late_by_cycle_L1D     31791     11068     16073      6603      6237      3722       393         0         0         0         0         0
@Sumon_Early_stream_L1D     22824     10480     10883      2869       961      1664      2110      3908      6559     10663      2893       385
@Sumon_Early_CS_L1D      2947      2005      3477      2405      2155     84502    149759      5716       488       249        95         0
@Sumon_Early_CPLX_L1D       725       566      1012       503       293       600       294       442       662      1131       367        43
@Sumon_Late_stream_L1D     26820      7254     11662      3676      1258       421         3         0         0         0         0         0
@Sumon_Late_CS_L1D      3202      3366      3768      2687      4876      3269       389         0         0         0         0         0
@Sumon_Late_CPLX_L1D      1161       426       615       231       101        32         1         0         0         0         0         0
@sumon_overall_L2C     45363     15893   1995717   2040642    887984    888168
@Sumon_Early_by_class_L2C     36189      6826      2017         0
@Sumon_Late_by_class_L2C         0     15699         0         0

@Sumon_Early_by_cycle_L2C      1102       886      1416       540       259       297       263       328        27       391      1898     37956
@Sumon_Late_by_cycle_L2C      2420      1775      2592      1758      1562      5361       425         0         0         0         0         0
@Sumon_Early_stream_L2C         0         0         0         0         0         0         0         0         1       329      1668     34191
@Sumon_Early_CS_L2C      1071       882      1412       538       256       282       248       305        18        21       112      1681
@Sumon_Early_CPLX_L2C         0         0         0         0         0         0         0         0         0        21       105      1891
@Sumon_Late_stream_L2C         0         0         0         0         0         0         0         0         0         0         0         0
@Sumon_Late_CS_L2C      2240      1769      2587      1756      1562      5360       425         0         0         0         0         0
@Sumon_Late_CPLX_L2C         0         0         0         0         0         0         0         0         0         0         0         0
DRAM PAGES: 1048576
Allocated PAGES: 9306
