
*** ChampSim Multicore Out-of-Order Simulator ***

Warmup Instructions: 10000000
Simulation Instructions: 50000000
Number of CPUs: 1
LLC sets: 2048
LLC ways: 16
Off-chip DRAM Size: 4096 MB Channels: 1 Width: 64-bit Data Rate: 400 MT/s
CPU 0 runs traces/graph/tc_70B.trace.gz
.gz
CPU 0 Bimodal branch predictor
BTB has LRU replacement policy
ITLB has LRU replacement policy
DTLB has LRU replacement policy
STLB has LRU replacement policy
L1I has LRU replacement policy
IP Table Entries: 256
L1D has LRU replacement policy
IP_Table L2 entries: 256
L2C has LRU replacement policy
LLC has LRU replacement policy
Heartbeat CPU 0 instructions: 10000003 cycles: 3869750 heartbeat IPC: 2.58415 cumulative IPC: 2.58415 (Simulation time: 0 hr 14 min 8 sec) 

Warmup complete CPU 0 instructions: 10000003 cycles: 3869750 (Simulation time: 0 hr 14 min 8 sec) 

Heartbeat CPU 0 instructions: 20000003 cycles: 59156070 heartbeat IPC: 0.180877 cumulative IPC: 0.180877 (Simulation time: 0 hr 29 min 34 sec) 
Heartbeat CPU 0 instructions: 30000000 cycles: 119305231 heartbeat IPC: 0.166253 cumulative IPC: 0.173257 (Simulation time: 0 hr 45 min 43 sec) 
Heartbeat CPU 0 instructions: 40000000 cycles: 189319842 heartbeat IPC: 0.142827 cumulative IPC: 0.161769 (Simulation time: 1 hr 3 min 12 sec) 
Heartbeat CPU 0 instructions: 50000000 cycles: 251450011 heartbeat IPC: 0.160952 cumulative IPC: 0.161564 (Simulation time: 1 hr 18 min 41 sec) 
Heartbeat CPU 0 instructions: 60000000 cycles: 328010944 heartbeat IPC: 0.130615 cumulative IPC: 0.154254 (Simulation time: 1 hr 34 min 44 sec) 
Finished CPU 0 instructions: 50000000 cycles: 324141210 cumulative IPC: 0.154254 (Simulation time: 1 hr 34 min 44 sec) 

ChampSim completed all CPUs

Region of Interest Statistics

CPU 0 cumulative IPC: 0.154254 instructions: 50000000 cycles: 324141210
ITLB TOTAL     ACCESS:    8637264  HIT:    8637264  MISS:          0  HIT %:        100  MISS %:          0   MPKI: 0
ITLB LOAD TRANSLATION ACCESS:    8637264  HIT:    8637264  MISS:          0  HIT %:        100  MISS %:          0   MPKI: 0
ITLB PREFETCH  REQUESTED:          0  ISSUED:          0  USEFUL:          0  USELESS:          0
ITLB USEFUL LOAD PREFETCHES:          0 PREFETCH ISSUED TO LOWER LEVEL:          0  ACCURACY: -nan
ITLB TIMELY PREFETCHES:          0 LATE PREFETCHES: 0 DROPPED PREFETCHES: 0
ITLB PREFETCHES SAME FILL-ORIGIN LEVEL: 0 DIFFERENT FILL-ORIGIN LEVEL: 0
ITLB AVERAGE MISS LATENCY: -nan cycles
ITLB RQ	ACCESS:    9119983	FORWARD:          0	MERGED:     482719	TO_CACHE:    8637264

DTLB TOTAL     ACCESS:   11019319  HIT:    9932783  MISS:    1086536  HIT %:    90.1397  MISS %:    9.86028   MPKI: 21.7307
DTLB LOAD TRANSLATION ACCESS:   11019319  HIT:    9932783  MISS:    1086536  HIT %:    90.1397  MISS %:    9.86028   MPKI: 21.7307
DTLB PREFETCH  REQUESTED:          0  ISSUED:          0  USEFUL:          0  USELESS:          0
DTLB USEFUL LOAD PREFETCHES:          0 PREFETCH ISSUED TO LOWER LEVEL:          0  ACCURACY: -nan
DTLB TIMELY PREFETCHES:          0 LATE PREFETCHES: 0 DROPPED PREFETCHES: 0
DTLB PREFETCHES SAME FILL-ORIGIN LEVEL: 0 DIFFERENT FILL-ORIGIN LEVEL: 0
DTLB AVERAGE MISS LATENCY: 71.2761 cycles
DTLB RQ	ACCESS:   11316550	FORWARD:          0	MERGED:     296522	TO_CACHE:   11020028

STLB TOTAL     ACCESS:    2271922  HIT:    1589752  MISS:     682170  HIT %:    69.9739  MISS %:    30.0261   MPKI: 13.6434
STLB LOAD TRANSLATION ACCESS:    1086536  HIT:     404393  MISS:     682143  HIT %:    37.2186  MISS %:    62.7814   MPKI: 13.6429
STLB TRANSLATION FROM L1D PREFETCHER ACCESS:    1185386  HIT:    1185359  MISS:         27  HIT %:    99.9977  MISS %: 0.00227774   MPKI: 0.00054
STLB PREFETCH  REQUESTED:          0  ISSUED:          0  USEFUL:         27  USELESS:          0
STLB USEFUL LOAD PREFETCHES:         27 PREFETCH ISSUED TO LOWER LEVEL:          0  ACCURACY: inf
STLB TIMELY PREFETCHES:         27 LATE PREFETCHES: 0 DROPPED PREFETCHES: 0
STLB PREFETCHES SAME FILL-ORIGIN LEVEL: 0 DIFFERENT FILL-ORIGIN LEVEL: 0
STLB AVERAGE MISS LATENCY: 99.1644 cycles
STLB RQ	ACCESS:    2638323	FORWARD:          0	MERGED:     366402	TO_CACHE:    2271921

STLB Hit, L1D data hit: 0
STLB Hit, L2C data hit: 0
STLB Hit, LLC data hit: 0
STLB Hit, LLC data miss: 0
STLB STLB hints to L2: 0
L1D TOTAL     ACCESS:   12817071  HIT:   10412905  MISS:    2404166  HIT %:    81.2425  MISS %:    18.7575   MPKI: 48.0833
L1D LOAD      ACCESS:   10243418  HIT:    9083440  MISS:    1159978  HIT %:    88.6759  MISS %:    11.3241   MPKI: 23.1996
L1D RFO       ACCESS:    1046027  HIT:    1046027  MISS:          0  HIT %:        100  MISS %:          0   MPKI: 0
L1D PREFETCH  ACCESS:    1527626  HIT:     283438  MISS:    1244188  HIT %:    18.5541  MISS %:    81.4459   MPKI: 24.8838
L1D PREFETCH  REQUESTED:    3103574  ISSUED:    3103574  USEFUL:     102646  USELESS:    1141542
L1D USEFUL LOAD PREFETCHES:     102646 PREFETCH ISSUED TO LOWER LEVEL:    1248066  ACCURACY: 8.2244
L1D TIMELY PREFETCHES:     102646 LATE PREFETCHES: 3873 DROPPED PREFETCHES: 0
L1D PREFETCHES SAME FILL-ORIGIN LEVEL: 1248066 DIFFERENT FILL-ORIGIN LEVEL: 0
L1D AVERAGE MISS LATENCY: 265536 cycles
L1D RQ	ACCESS:   11732695	FORWARD:          0	MERGED:    1459466	TO_CACHE:   10270523
L1D WQ	ACCESS:    1046094	FORWARD:       2706	MERGED:         67	TO_CACHE:    1046027
L1D PQ	ACCESS:    1551787	FORWARD:          0	MERGED:          0	TO_CACHE:    1551787

L1D UNIQUE REGIONS ACCESSED: 0
L1D REGIONS CONFLICTS: 0
L1D Cross Page Prefetch Requests: 0
L1D Same Page Prefetch Requests: 1790371
L1D ROI Sum of L1D PQ occupancy: 20557768
L1D PREFETCHES PUSHED FROM L2C: 0
L1I TOTAL     ACCESS:    9119983  HIT:    9119983  MISS:          0  HIT %:        100  MISS %:          0   MPKI: 0
L1I LOAD      ACCESS:    9119983  HIT:    9119983  MISS:          0  HIT %:        100  MISS %:          0   MPKI: 0
L1I PREFETCH  REQUESTED:          0  ISSUED:          0  USEFUL:          0  USELESS:          0
L1I USEFUL LOAD PREFETCHES:          0 PREFETCH ISSUED TO LOWER LEVEL:          0  ACCURACY: -nan
L1I TIMELY PREFETCHES:          0 LATE PREFETCHES: 0 DROPPED PREFETCHES: 0
L1I PREFETCHES SAME FILL-ORIGIN LEVEL: 0 DIFFERENT FILL-ORIGIN LEVEL: 0
L1I AVERAGE MISS LATENCY: -nan cycles
L1I RQ	ACCESS:   12449272	FORWARD:          0	MERGED:    3329289	TO_CACHE:    9119983

BTB TOTAL     ACCESS:   12374183  HIT:   12374169  MISS:         14  HIT %:    99.9999  MISS %: 0.000113139   MPKI: 0.00028
BTB BRANCH_DIRECT_JUMP	ACCESS:    1540695  HIT:    1540692  MISS:          3
BTB BRANCH_INDIRECT	ACCESS:          0  HIT:          0  MISS:          0
BTB BRANCH_CONDITIONAL	ACCESS:   10833488  HIT:   10833477  MISS:         11
BTB BRANCH_DIRECT_CALL	ACCESS:          0  HIT:          0  MISS:          0
BTB BRANCH_INDIRECT_CALL	ACCESS:          0  HIT:          0  MISS:          0
BTB BRANCH_RETURN	ACCESS:          0  HIT:          0  MISS:          0
BTB BRANCH_OTHER ACCESS:          0  HIT:          0  MISS:          0

L2C TOTAL     ACCESS:    3917543  HIT:    1486848  MISS:    2430695  HIT %:    37.9536  MISS %:    62.0464   MPKI: 48.6139
L2C LOAD      ACCESS:    1156105  HIT:     133831  MISS:    1022274  HIT %:     11.576  MISS %:     88.424   MPKI: 20.4455
L2C DATA LOAD MPKI: 20.4455
L2C INSTRUCTION LOAD MPKI: 0
L2C PREFETCH  ACCESS:    1451149  HIT:     329814  MISS:    1121335  HIT %:    22.7278  MISS %:    77.2722   MPKI: 22.4267
L2C DATA PREFETCH MPKI: 22.4267
L2C INSTRUCTION PREFETCH MPKI: 0
L2C WRITEBACK ACCESS:     228953  HIT:     228948  MISS:          5  HIT %:    99.9978  MISS %: 0.00218385   MPKI: 0.0001
L2C LOAD TRANSLATION ACCESS:    1081286  HIT:     794207  MISS:     287079  HIT %:    73.4502  MISS %:    26.5498   MPKI: 5.74158
L2C TRANSLATION FROM L1D PREFETCHER ACCESS:         50  HIT:         48  MISS:          2  HIT %:         96  MISS %:          4   MPKI: 4e-05
L2C PREFETCH  REQUESTED:     216235  ISSUED:     216234  USEFUL:      40703  USELESS:    1080570
L2C USEFUL LOAD PREFETCHES:      40703 PREFETCH ISSUED TO LOWER LEVEL:    1121350  ACCURACY: 3.62982
L2C TIMELY PREFETCHES:      40703 LATE PREFETCHES: 16 DROPPED PREFETCHES: 0
L2C PREFETCHES SAME FILL-ORIGIN LEVEL: 63466 DIFFERENT FILL-ORIGIN LEVEL: 0
L2C AVERAGE MISS LATENCY: 236.749 cycles
L2C RQ	ACCESS:    2237440	FORWARD:          0	MERGED:          0	TO_CACHE:    2237440
L2C WQ	ACCESS:     228953	FORWARD:          0	MERGED:          0	TO_CACHE:     228953
L2C PQ	ACCESS:    1464292	FORWARD:          0	MERGED:      12816	TO_CACHE:    1451476

L2C Instructions Evicting Data 0
L2C Translations Evicting Data 249605
L2C Data Evicting Data 1894005
L2C Instructions Evicting Instructions 0
L2C Translations Evicting Instructions 0
L2C Data Evicting Instructions 0
L2C Instructions Evicting Translations 0
L2C Translations Evicting Translations 37476
L2C Data Evicting Translations 249604
L2C Dense regions hint from L2: 0
PSCL5 TOTAL     ACCESS:     682170  HIT:     682170  MISS:          0  HIT %:        100  MISS %:          0   MPKI: 0
PSCL5 LOAD TRANSLATION ACCESS:     682143  HIT:     682143  MISS:          0  HIT %:        100  MISS %:          0   MPKI: 0
PSCL5 TRANSLATION FROM L1D PREFETCHER ACCESS:         27  HIT:         27  MISS:          0  HIT %:        100  MISS %:          0   MPKI: 0
PSCL5 PREFETCH  REQUESTED:          0  ISSUED:          0  USEFUL:          0  USELESS:          0
PSCL5 USEFUL LOAD PREFETCHES:          0 PREFETCH ISSUED TO LOWER LEVEL:          0  ACCURACY: -nan
PSCL5 TIMELY PREFETCHES:          0 LATE PREFETCHES: 0 DROPPED PREFETCHES: 0
PSCL5 PREFETCHES SAME FILL-ORIGIN LEVEL: 0 DIFFERENT FILL-ORIGIN LEVEL: 0

PSCL4 TOTAL     ACCESS:     682170  HIT:     682170  MISS:          0  HIT %:        100  MISS %:          0   MPKI: 0
PSCL4 LOAD TRANSLATION ACCESS:     682143  HIT:     682143  MISS:          0  HIT %:        100  MISS %:          0   MPKI: 0
PSCL4 TRANSLATION FROM L1D PREFETCHER ACCESS:         27  HIT:         27  MISS:          0  HIT %:        100  MISS %:          0   MPKI: 0
PSCL4 PREFETCH  REQUESTED:          0  ISSUED:          0  USEFUL:          0  USELESS:          0
PSCL4 USEFUL LOAD PREFETCHES:          0 PREFETCH ISSUED TO LOWER LEVEL:          0  ACCURACY: -nan
PSCL4 TIMELY PREFETCHES:          0 LATE PREFETCHES: 0 DROPPED PREFETCHES: 0
PSCL4 PREFETCHES SAME FILL-ORIGIN LEVEL: 0 DIFFERENT FILL-ORIGIN LEVEL: 0

PSCL3 TOTAL     ACCESS:     682170  HIT:     682170  MISS:          0  HIT %:        100  MISS %:          0   MPKI: 0
PSCL3 LOAD TRANSLATION ACCESS:     682143  HIT:     682143  MISS:          0  HIT %:        100  MISS %:          0   MPKI: 0
PSCL3 TRANSLATION FROM L1D PREFETCHER ACCESS:         27  HIT:         27  MISS:          0  HIT %:        100  MISS %:          0   MPKI: 0
PSCL3 PREFETCH  REQUESTED:          0  ISSUED:          0  USEFUL:          0  USELESS:          0
PSCL3 USEFUL LOAD PREFETCHES:          0 PREFETCH ISSUED TO LOWER LEVEL:          0  ACCURACY: -nan
PSCL3 TIMELY PREFETCHES:          0 LATE PREFETCHES: 0 DROPPED PREFETCHES: 0
PSCL3 PREFETCHES SAME FILL-ORIGIN LEVEL: 0 DIFFERENT FILL-ORIGIN LEVEL: 0

PSCL2 TOTAL     ACCESS:     682170  HIT:     283001  MISS:     399169  HIT %:    41.4854  MISS %:    58.5146   MPKI: 7.98338
PSCL2 LOAD TRANSLATION ACCESS:     682166  HIT:     282997  MISS:     399169  HIT %:    41.4851  MISS %:    58.5149   MPKI: 7.98338
PSCL2 TRANSLATION FROM L1D PREFETCHER ACCESS:          4  HIT:          4  MISS:          0  HIT %:        100  MISS %:          0   MPKI: 0
PSCL2 PREFETCH  REQUESTED:          0  ISSUED:          0  USEFUL:          0  USELESS:          0
PSCL2 USEFUL LOAD PREFETCHES:          0 PREFETCH ISSUED TO LOWER LEVEL:          0  ACCURACY: -nan
PSCL2 TIMELY PREFETCHES:          0 LATE PREFETCHES: 0 DROPPED PREFETCHES: 0
PSCL2 PREFETCHES SAME FILL-ORIGIN LEVEL: 0 DIFFERENT FILL-ORIGIN LEVEL: 0

LLC TOTAL     ACCESS:    2650937  HIT:     671729  MISS:    1979208  HIT %:    25.3393  MISS %:    74.6607   MPKI: 39.5842
LLC LOAD      ACCESS:    1022258  HIT:     140284  MISS:     881974  HIT %:     13.723  MISS %:     86.277   MPKI: 17.6395
LLC PREFETCH  ACCESS:    1121351  HIT:     151346  MISS:     970005  HIT %:    13.4968  MISS %:    86.5032   MPKI: 19.4001
LLC WRITEBACK ACCESS:     220247  HIT:     220227  MISS:         20  HIT %:    99.9909  MISS %: 0.00908071   MPKI: 0.0004
LLC LOAD TRANSLATION ACCESS:     287079  HIT:     159871  MISS:     127208  HIT %:    55.6889  MISS %:    44.3111   MPKI: 2.54416
LLC TRANSLATION FROM L1D PREFETCHER ACCESS:          2  HIT:          1  MISS:          1  HIT %:         50  MISS %:         50   MPKI: 2e-05
LLC PREFETCH  REQUESTED:          0  ISSUED:          0  USEFUL:      50357  USELESS:     919354
LLC USEFUL LOAD PREFETCHES:      50357 PREFETCH ISSUED TO LOWER LEVEL:     970004  ACCURACY: 5.19142
LLC TIMELY PREFETCHES:      50357 LATE PREFETCHES: 0 DROPPED PREFETCHES: 0
LLC PREFETCHES SAME FILL-ORIGIN LEVEL: 0 DIFFERENT FILL-ORIGIN LEVEL: 0
LLC AVERAGE MISS LATENCY: 253.498 cycles
LLC RQ	ACCESS:    1309338	FORWARD:          0	MERGED:          0	TO_CACHE:    1309338
LLC WQ	ACCESS:     220247	FORWARD:          0	MERGED:          0	TO_CACHE:     220247
LLC PQ	ACCESS:    1121350	FORWARD:          0	MERGED:          0	TO_CACHE:    1121350

LLC Dense regions hint to LLC: 0

RAW hits: 693752
Loads Generated: 12426447
Loads sent to L1D: 11732695
Stores Generated: 1046092
Stores sent to L1D: 1046094
Major fault: 0 Minor fault: 84097
Allocated PAGES: 84097

stream: 
stream:times selected: 1902668
stream:pref_filled: 1154828
stream:pref_useful: 31310
stream:pref_late: 3746
stream:misses: 359988
stream:misses_by_poll: 0

CS: 
CS:times selected: 336343
CS:pref_filled: 89367
CS:pref_useful: 85049
CS:pref_late: 20
CS:misses: 3235
CS:misses_by_poll: 38

CPLX: 
CPLX:times selected: 1526710
CPLX:pref_filled: 180591
CPLX:pref_useful: 2163
CPLX:pref_late: 155
CPLX:misses: 1000313
CPLX:misses_by_poll: 254

NL_L1: 
NL:times selected: 11547
NL:pref_filled: 10041
NL:pref_useful: 450
NL:pref_late: 68
NL:misses: 10540
NL:misses_by_poll: 1

total selections: 3777268
total_filled: 1244188
total_useful: 102646
total_late: 4020
total_polluted: 293
total_misses_after_warmup: 1187083
conflicts: 2
Degree Incremented Times: 40899
Degree Decremented Times: 123738

L1 IP Table Write Accesses: 10270523
L1 IP Table Read Accesses: 10270521
L1 RST Write Accesses: 1640259
L1 RST Read Accesses: 3280518
L1 CSPT Write Accesses: 1640259
L1 CSPT Read Accesses: 2961910
L1 RR Filter Tag Write Accesses: 1551787
L1 RR Filter Tag Read Accesses: 73067246
L1 IP Table Tag Write Accesses: 10270523
L1 IP Table Tag Read Accesses: 10270523
L1 RST Tag Write Accesses: 0
L1 RST Tag Read Accesses: 14897847
L1 RR Filter Write Accesses: 0
L1 RR Filter Read Accesses: 2653116
test: 1106491
L2 IP Table Read Accesses: 4793478
L2 IP Table Write Accesses: 3637374
L2 IP Table Tag Read Accesses: 2396739
L2 IP Table Tag Write Accesses: 2396739

DRAM Statistics
 CHANNEL 0
 RQ ROW_BUFFER_HIT:     127433  ROW_BUFFER_MISS:    1851752
 DBUS_CONGESTED:    1385911
 WQ ROW_BUFFER_HIT:      48824  ROW_BUFFER_MISS:     158131  FULL:          0

 AVG_CONGESTED_CYCLE: 65
 All warmup complete: 2
Channel 0 Bank busy for read cycles: 0
Channel 0 Bank busy for write cycles: 0
Channel 0
Rank 0
0banks busy for read cycles: 79552620
0banks busy for write cycles: 119502
1banks busy for read cycles: 77805393
1banks busy for write cycles: 24881772
2banks busy for read cycles: 73703340
2banks busy for write cycles: 10504293
3banks busy for read cycles: 30589077
3banks busy for write cycles: 3879650
4banks busy for read cycles: 14088323
4banks busy for write cycles: 1361188
5banks busy for read cycles: 5089258
5banks busy for write cycles: 445077
6banks busy for read cycles: 1471610
6banks busy for write cycles: 131217
7banks busy for read cycles: 406250
7banks busy for write cycles: 25887
8banks busy for read cycles: 85093
8banks busy for write cycles: 1661

CPU 0 Branch Prediction Accuracy: 93.3417% MPKI: 22.5154 Average ROB Occupancy at Mispredict: 18.9431
Branch types
NOT_BRANCH: 33091986 66.184%
BRANCH_DIRECT_JUMP: 1540695 3.08139%
BRANCH_INDIRECT: 0 0%
BRANCH_CONDITIONAL: 15366958 30.7339%
BRANCH_DIRECT_CALL: 0 0%
BRANCH_INDIRECT_CALL: 0 0%
BRANCH_RETURN: 0 0%
BRANCH_OTHER: 0 0%

@sumon_overall_L1D    102646      3873   1141542   1244188   3103574   3103574
@Sumon_Early_by_class_L1D     26281     74210      1772        67
@Sumon_Late_by_class_L1D      3610        17       151        67

@Sumon_Early_by_cycle_L1D      4358      4730      4251      1907       810       935       752      2688      8267     59490      9971      4487
@Sumon_Late_by_cycle_L1D      3644       219        10         0         0         0         0         0         0         0         0         0
@Sumon_Early_stream_L1D      4167      4508      3996      1747       714       693       257       669      1539      3499      2742      1750
@Sumon_Early_CS_L1D        24        37        70        57        52       181       468      1939      6567     55598      6824      2393
@Sumon_Early_CPLX_L1D        96       109       107        61        29        49        26        74       152       362       373       334
@Sumon_Late_stream_L1D      3451       150         9         0         0         0         0         0         0         0         0         0
@Sumon_Late_CS_L1D        15         1         1         0         0         0         0         0         0         0         0         0
@Sumon_Late_CPLX_L1D        83        68         0         0         0         0         0         0         0         0         0         0
@sumon_overall_L2C     40703        16   1080570   1121337    216234    216235
@Sumon_Early_by_class_L2C     34649      1322      4406         0
@Sumon_Late_by_class_L2C         0        16         0         0

@Sumon_Early_by_cycle_L2C        12        18        28        21        10        37        33        90       180       910      2726     36638
@Sumon_Late_by_cycle_L2C         9         6         1         0         0         0         0         0         0         0         0         0
@Sumon_Early_stream_L2C         0         0         0         0         0         0         0         0        12       602      2334     31701
@Sumon_Early_CS_L2C        12        18        28        21        10        37        33        90       167       265       189       452
@Sumon_Early_CPLX_L2C         0         0         0         0         0         0         0         0         1        38       182      4185
@Sumon_Late_stream_L2C         0         0         0         0         0         0         0         0         0         0         0         0
@Sumon_Late_CS_L2C         9         6         1         0         0         0         0         0         0         0         0         0
@Sumon_Late_CPLX_L2C         0         0         0         0         0         0         0         0         0         0         0         0
DRAM PAGES: 1048576
Allocated PAGES: 84097
