
*** ChampSim Multicore Out-of-Order Simulator ***

Warmup Instructions: 10000000
Simulation Instructions: 50000000
Number of CPUs: 1
LLC sets: 2048
LLC ways: 16
Off-chip DRAM Size: 4096 MB Channels: 1 Width: 64-bit Data Rate: 6400 MT/s
CPU 0 runs traces/clientserver/client_005.champsimtrace.xz
.xz
CPU 0 Bimodal branch predictor
BTB has LRU replacement policy
ITLB has LRU replacement policy
DTLB has LRU replacement policy
STLB has LRU replacement policy
L1I has LRU replacement policy
IP Table Entries: 256
L1D has LRU replacement policy
IP_Table L2 entries: 256
L2C has LRU replacement policy
LLC has LRU replacement policy
Heartbeat CPU 0 instructions: 10000002 cycles: 2797971 heartbeat IPC: 3.57402 cumulative IPC: 3.57402 (Simulation time: 0 hr 8 min 21 sec) 

Warmup complete CPU 0 instructions: 10000002 cycles: 2797971 (Simulation time: 0 hr 8 min 21 sec) 

Heartbeat CPU 0 instructions: 20000003 cycles: 20013114 heartbeat IPC: 0.580884 cumulative IPC: 0.580884 (Simulation time: 0 hr 16 min 41 sec) 
Heartbeat CPU 0 instructions: 30000003 cycles: 34325673 heartbeat IPC: 0.698687 cumulative IPC: 0.634363 (Simulation time: 0 hr 25 min 44 sec) 
Heartbeat CPU 0 instructions: 40000001 cycles: 48979498 heartbeat IPC: 0.682416 cumulative IPC: 0.64961 (Simulation time: 0 hr 34 min 44 sec) 
Heartbeat CPU 0 instructions: 50000000 cycles: 67127945 heartbeat IPC: 0.551011 cumulative IPC: 0.621794 (Simulation time: 0 hr 43 min 34 sec) 
Heartbeat CPU 0 instructions: 60000001 cycles: 85770063 heartbeat IPC: 0.53642 cumulative IPC: 0.602612 (Simulation time: 0 hr 51 min 9 sec) 
Finished CPU 0 instructions: 50000000 cycles: 82972093 cumulative IPC: 0.602612 (Simulation time: 0 hr 51 min 9 sec) 

ChampSim completed all CPUs

Region of Interest Statistics

CPU 0 cumulative IPC: 0.602612 instructions: 50000000 cycles: 82972093
ITLB TOTAL     ACCESS:    8429838  HIT:    8334765  MISS:      95073  HIT %:    98.8722  MISS %:    1.12782   MPKI: 1.90146
ITLB LOAD TRANSLATION ACCESS:    8429838  HIT:    8334765  MISS:      95073  HIT %:    98.8722  MISS %:    1.12782   MPKI: 1.90146
ITLB PREFETCH  REQUESTED:          0  ISSUED:          0  USEFUL:          0  USELESS:          0
ITLB USEFUL LOAD PREFETCHES:          0 PREFETCH ISSUED TO LOWER LEVEL:          0  ACCURACY: -nan
ITLB TIMELY PREFETCHES:          0 LATE PREFETCHES: 0 DROPPED PREFETCHES: 0
ITLB PREFETCHES SAME FILL-ORIGIN LEVEL: 0 DIFFERENT FILL-ORIGIN LEVEL: 0
ITLB AVERAGE MISS LATENCY: 10.5466 cycles
ITLB RQ	ACCESS:    9980954	FORWARD:          0	MERGED:    1526615	TO_CACHE:    8454339

DTLB TOTAL     ACCESS:   10778006  HIT:   10574876  MISS:     203130  HIT %:    98.1153  MISS %:    1.88467   MPKI: 4.0626
DTLB LOAD TRANSLATION ACCESS:   10778006  HIT:   10574876  MISS:     203130  HIT %:    98.1153  MISS %:    1.88467   MPKI: 4.0626
DTLB PREFETCH  REQUESTED:          0  ISSUED:          0  USEFUL:          0  USELESS:          0
DTLB USEFUL LOAD PREFETCHES:          0 PREFETCH ISSUED TO LOWER LEVEL:          0  ACCURACY: -nan
DTLB TIMELY PREFETCHES:          0 LATE PREFETCHES: 0 DROPPED PREFETCHES: 0
DTLB PREFETCHES SAME FILL-ORIGIN LEVEL: 0 DIFFERENT FILL-ORIGIN LEVEL: 0
DTLB AVERAGE MISS LATENCY: 13.8016 cycles
DTLB RQ	ACCESS:   14673990	FORWARD:          0	MERGED:    3869392	TO_CACHE:   10804598

STLB TOTAL     ACCESS:     617273  HIT:     606114  MISS:      11159  HIT %:    98.1922  MISS %:    1.80779   MPKI: 0.22318
STLB LOAD TRANSLATION ACCESS:     298203  HIT:     287044  MISS:      11159  HIT %:    96.2579  MISS %:    3.74208   MPKI: 0.22318
STLB TRANSLATION FROM L1D PREFETCHER ACCESS:     319070  HIT:     319070  MISS:          0  HIT %:        100  MISS %:          0   MPKI: 0
STLB PREFETCH  REQUESTED:          0  ISSUED:          0  USEFUL:          0  USELESS:          0
STLB USEFUL LOAD PREFETCHES:          0 PREFETCH ISSUED TO LOWER LEVEL:          0  ACCURACY: -nan
STLB TIMELY PREFETCHES:          0 LATE PREFETCHES: 0 DROPPED PREFETCHES: 0
STLB PREFETCHES SAME FILL-ORIGIN LEVEL: 0 DIFFERENT FILL-ORIGIN LEVEL: 0
STLB AVERAGE MISS LATENCY: 98.7703 cycles
STLB RQ	ACCESS:     695983	FORWARD:          0	MERGED:      78710	TO_CACHE:     617273

STLB Hit, L1D data hit: 0
STLB Hit, L2C data hit: 0
STLB Hit, LLC data hit: 0
STLB Hit, LLC data miss: 0
STLB STLB hints to L2: 0
L1D TOTAL     ACCESS:   14586180  HIT:   14113641  MISS:     472539  HIT %:    96.7604  MISS %:    3.23964   MPKI: 9.45078
L1D LOAD      ACCESS:    7354432  HIT:    7184878  MISS:     169554  HIT %:    97.6945  MISS %:    2.30547   MPKI: 3.39108
L1D RFO       ACCESS:    6843540  HIT:    6646740  MISS:     196800  HIT %:    97.1243  MISS %:     2.8757   MPKI: 3.936
L1D PREFETCH  ACCESS:     388208  HIT:     282023  MISS:     106185  HIT %:    72.6474  MISS %:    27.3526   MPKI: 2.1237
L1D PREFETCH  REQUESTED:     796368  ISSUED:     796368  USEFUL:      37808  USELESS:      68439
L1D USEFUL LOAD PREFETCHES:      37808 PREFETCH ISSUED TO LOWER LEVEL:     109843  ACCURACY: 34.42
L1D TIMELY PREFETCHES:      37808 LATE PREFETCHES: 3104 DROPPED PREFETCHES: 0
L1D PREFETCHES SAME FILL-ORIGIN LEVEL: 109843 DIFFERENT FILL-ORIGIN LEVEL: 0
L1D AVERAGE MISS LATENCY: 335399 cycles
L1D RQ	ACCESS:   11225130	FORWARD:          0	MERGED:    3697779	TO_CACHE:    7376381
L1D WQ	ACCESS:    7432372	FORWARD:     151778	MERGED:     134763	TO_CACHE:    7297609
L1D PQ	ACCESS:     398588	FORWARD:          0	MERGED:          0	TO_CACHE:     397780

L1D UNIQUE REGIONS ACCESSED: 0
L1D REGIONS CONFLICTS: 0
L1D Cross Page Prefetch Requests: 0
L1D Same Page Prefetch Requests: 518770
L1D ROI Sum of L1D PQ occupancy: 5182214
L1D PREFETCHES PUSHED FROM L2C: 0
L1I TOTAL     ACCESS:    9832865  HIT:    9226331  MISS:     606534  HIT %:    93.8316  MISS %:    6.16844   MPKI: 12.1307
L1I LOAD      ACCESS:    9832865  HIT:    9226331  MISS:     606534  HIT %:    93.8316  MISS %:    6.16844   MPKI: 12.1307
L1I PREFETCH  REQUESTED:          0  ISSUED:          0  USEFUL:          0  USELESS:          0
L1I USEFUL LOAD PREFETCHES:          0 PREFETCH ISSUED TO LOWER LEVEL:          0  ACCURACY: -nan
L1I TIMELY PREFETCHES:          0 LATE PREFETCHES: 0 DROPPED PREFETCHES: 0
L1I PREFETCHES SAME FILL-ORIGIN LEVEL: 0 DIFFERENT FILL-ORIGIN LEVEL: 0
L1I AVERAGE MISS LATENCY: 22.387 cycles
L1I RQ	ACCESS:   14579105	FORWARD:          0	MERGED:    4598151	TO_CACHE:    9980954

BTB TOTAL     ACCESS:    6893713  HIT:    6283561  MISS:     610152  HIT %:    91.1492  MISS %:    8.85085   MPKI: 12.203
BTB BRANCH_DIRECT_JUMP	ACCESS:     483896  HIT:     465834  MISS:      18062
BTB BRANCH_INDIRECT	ACCESS:      85593  HIT:      43913  MISS:      41680
BTB BRANCH_CONDITIONAL	ACCESS:    3985081  HIT:    3930845  MISS:      54236
BTB BRANCH_DIRECT_CALL	ACCESS:    1028275  HIT:     991419  MISS:      36856
BTB BRANCH_INDIRECT_CALL	ACCESS:     140671  HIT:     104723  MISS:      35948
BTB BRANCH_RETURN	ACCESS:    1170197  HIT:     746827  MISS:     423370
BTB BRANCH_OTHER ACCESS:          0  HIT:          0  MISS:          0

L2C TOTAL     ACCESS:    1461213  HIT:    1062689  MISS:     398524  HIT %:    72.7265  MISS %:    27.2735   MPKI: 7.97048
L2C LOAD      ACCESS:     772977  HIT:     633896  MISS:     139081  HIT %:    82.0071  MISS %:    17.9929   MPKI: 2.78162
L2C DATA LOAD MPKI: 1.37062
L2C INSTRUCTION LOAD MPKI: 1.411
L2C RFO       ACCESS:     196242  HIT:      35094  MISS:     161148  HIT %:     17.883  MISS %:     82.117   MPKI: 3.22296
L2C PREFETCH  ACCESS:     232788  HIT:     139325  MISS:      93463  HIT %:    59.8506  MISS %:    40.1494   MPKI: 1.86926
L2C DATA PREFETCH MPKI: 1.86926
L2C INSTRUCTION PREFETCH MPKI: 0
L2C WRITEBACK ACCESS:     247243  HIT:     246146  MISS:       1097  HIT %:    99.5563  MISS %:   0.443693   MPKI: 0.02194
L2C LOAD TRANSLATION ACCESS:      11963  HIT:       8228  MISS:       3735  HIT %:    68.7787  MISS %:    31.2213   MPKI: 0.0747
L2C PREFETCH  REQUESTED:     138558  ISSUED:     138558  USEFUL:      14012  USELESS:      79242
L2C USEFUL LOAD PREFETCHES:      14012 PREFETCH ISSUED TO LOWER LEVEL:      94242  ACCURACY: 14.8681
L2C TIMELY PREFETCHES:      14012 LATE PREFETCHES: 779 DROPPED PREFETCHES: 0
L2C PREFETCHES SAME FILL-ORIGIN LEVEL: 35466 DIFFERENT FILL-ORIGIN LEVEL: 0
L2C AVERAGE MISS LATENCY: 127.486 cycles
L2C RQ	ACCESS:     981194	FORWARD:          0	MERGED:          0	TO_CACHE:     981183
L2C WQ	ACCESS:     247243	FORWARD:         14	MERGED:          0	TO_CACHE:     247243
L2C PQ	ACCESS:     248401	FORWARD:          0	MERGED:      11456	TO_CACHE:     236942

L2C Instructions Evicting Data 45425
L2C Translations Evicting Data 2786
L2C Data Evicting Data 275786
L2C Instructions Evicting Instructions 24166
L2C Translations Evicting Instructions 872
L2C Data Evicting Instructions 44657
L2C Instructions Evicting Translations 959
L2C Translations Evicting Translations 77
L2C Data Evicting Translations 2699
L2C Dense regions hint from L2: 0
PSCL5 TOTAL     ACCESS:      11159  HIT:      11159  MISS:          0  HIT %:        100  MISS %:          0   MPKI: 0
PSCL5 LOAD TRANSLATION ACCESS:      11159  HIT:      11159  MISS:          0  HIT %:        100  MISS %:          0   MPKI: 0
PSCL5 PREFETCH  REQUESTED:          0  ISSUED:          0  USEFUL:          0  USELESS:          0
PSCL5 USEFUL LOAD PREFETCHES:          0 PREFETCH ISSUED TO LOWER LEVEL:          0  ACCURACY: -nan
PSCL5 TIMELY PREFETCHES:          0 LATE PREFETCHES: 0 DROPPED PREFETCHES: 0
PSCL5 PREFETCHES SAME FILL-ORIGIN LEVEL: 0 DIFFERENT FILL-ORIGIN LEVEL: 0

PSCL4 TOTAL     ACCESS:      11159  HIT:      11159  MISS:          0  HIT %:        100  MISS %:          0   MPKI: 0
PSCL4 LOAD TRANSLATION ACCESS:      11159  HIT:      11159  MISS:          0  HIT %:        100  MISS %:          0   MPKI: 0
PSCL4 PREFETCH  REQUESTED:          0  ISSUED:          0  USEFUL:          0  USELESS:          0
PSCL4 USEFUL LOAD PREFETCHES:          0 PREFETCH ISSUED TO LOWER LEVEL:          0  ACCURACY: -nan
PSCL4 TIMELY PREFETCHES:          0 LATE PREFETCHES: 0 DROPPED PREFETCHES: 0
PSCL4 PREFETCHES SAME FILL-ORIGIN LEVEL: 0 DIFFERENT FILL-ORIGIN LEVEL: 0

PSCL3 TOTAL     ACCESS:      11139  HIT:      11130  MISS:          9  HIT %:    99.9192  MISS %:  0.0807972   MPKI: 0.00018
PSCL3 LOAD TRANSLATION ACCESS:      11139  HIT:      11130  MISS:          9  HIT %:    99.9192  MISS %:  0.0807972   MPKI: 0.00018
PSCL3 PREFETCH  REQUESTED:          0  ISSUED:          0  USEFUL:          0  USELESS:          0
PSCL3 USEFUL LOAD PREFETCHES:          0 PREFETCH ISSUED TO LOWER LEVEL:          0  ACCURACY: -nan
PSCL3 TIMELY PREFETCHES:          0 LATE PREFETCHES: 0 DROPPED PREFETCHES: 0
PSCL3 PREFETCHES SAME FILL-ORIGIN LEVEL: 0 DIFFERENT FILL-ORIGIN LEVEL: 0

PSCL2 TOTAL     ACCESS:      11159  HIT:      10355  MISS:        804  HIT %:    92.7951  MISS %:    7.20495   MPKI: 0.01608
PSCL2 LOAD TRANSLATION ACCESS:      11159  HIT:      10355  MISS:        804  HIT %:    92.7951  MISS %:    7.20495   MPKI: 0.01608
PSCL2 PREFETCH  REQUESTED:          0  ISSUED:          0  USEFUL:          0  USELESS:          0
PSCL2 USEFUL LOAD PREFETCHES:          0 PREFETCH ISSUED TO LOWER LEVEL:          0  ACCURACY: -nan
PSCL2 TIMELY PREFETCHES:          0 LATE PREFETCHES: 0 DROPPED PREFETCHES: 0
PSCL2 PREFETCHES SAME FILL-ORIGIN LEVEL: 0 DIFFERENT FILL-ORIGIN LEVEL: 0

LLC TOTAL     ACCESS:     593189  HIT:     323127  MISS:     270062  HIT %:    54.4729  MISS %:    45.5271   MPKI: 5.40124
LLC LOAD      ACCESS:     138384  HIT:      79346  MISS:      59038  HIT %:    57.3376  MISS %:    42.6624   MPKI: 1.18076
LLC RFO       ACCESS:     161065  HIT:      10940  MISS:     150125  HIT %:    6.79229  MISS %:    93.2077   MPKI: 3.0025
LLC PREFETCH  ACCESS:      94241  HIT:      36058  MISS:      58183  HIT %:    38.2615  MISS %:    61.7385   MPKI: 1.16366
LLC WRITEBACK ACCESS:     195764  HIT:     194963  MISS:        801  HIT %:    99.5908  MISS %:   0.409166   MPKI: 0.01602
LLC LOAD TRANSLATION ACCESS:       3735  HIT:       1820  MISS:       1915  HIT %:    48.7282  MISS %:    51.2718   MPKI: 0.0383
LLC PREFETCH  REQUESTED:          0  ISSUED:          0  USEFUL:       5400  USELESS:      52501
LLC USEFUL LOAD PREFETCHES:       5400 PREFETCH ISSUED TO LOWER LEVEL:      58183  ACCURACY: 9.28106
LLC TIMELY PREFETCHES:       5400 LATE PREFETCHES: 0 DROPPED PREFETCHES: 0
LLC PREFETCHES SAME FILL-ORIGIN LEVEL: 0 DIFFERENT FILL-ORIGIN LEVEL: 0
LLC AVERAGE MISS LATENCY: 143.913 cycles
LLC RQ	ACCESS:     303185	FORWARD:          0	MERGED:          0	TO_CACHE:     303184
LLC WQ	ACCESS:     195764	FORWARD:          2	MERGED:          0	TO_CACHE:     195764
LLC PQ	ACCESS:      94242	FORWARD:          0	MERGED:          0	TO_CACHE:      94241

LLC Dense regions hint to LLC: 0

RAW hits: 1580539
Loads Generated: 12805668
Loads sent to L1D: 11225130
Stores Generated: 7432359
Stores sent to L1D: 7432372
Major fault: 0 Minor fault: 5569
Allocated PAGES: 5569

stream: 
stream:times selected: 759954
stream:pref_filled: 64337
stream:pref_useful: 17523
stream:pref_late: 1598
stream:misses: 7098
stream:misses_by_poll: 0

CS: 
CS:times selected: 108975
CS:pref_filled: 32396
CS:pref_useful: 24528
CS:pref_late: 1150
CS:misses: 3778
CS:misses_by_poll: 51

CPLX: 
CPLX:times selected: 643838
CPLX:pref_filled: 29924
CPLX:pref_useful: 4514
CPLX:pref_late: 164
CPLX:misses: 35214
CPLX:misses_by_poll: 21

NL_L1: 
NL:times selected: 5936
NL:pref_filled: 993
NL:pref_useful: 198
NL:pref_late: 21
NL:misses: 369
NL:misses_by_poll: 0

total selections: 1518703
total_filled: 106185
total_useful: 37808
total_late: 3309
total_polluted: 72
total_misses_after_warmup: 191504
conflicts: 2431215
Degree Incremented Times: 17833
Degree Decremented Times: 102285

L1 IP Table Write Accesses: 4501203
L1 IP Table Read Accesses: 2069988
L1 RST Write Accesses: 592730
L1 RST Read Accesses: 1185460
L1 CSPT Write Accesses: 592730
L1 CSPT Read Accesses: 1108590
L1 RR Filter Tag Write Accesses: 398588
L1 RR Filter Tag Read Accesses: 24897189
L1 IP Table Tag Write Accesses: 7376382
L1 IP Table Tag Read Accesses: 7376382
L1 RST Tag Write Accesses: 0
L1 RST Tag Read Accesses: 5478567
L1 RR Filter Write Accesses: 0
L1 RR Filter Read Accesses: 937202
test: 229168
L2 IP Table Read Accesses: 443117
L2 IP Table Write Accesses: 437208
L2 IP Table Tag Read Accesses: 270779
L2 IP Table Tag Write Accesses: 270779

DRAM Statistics
 CHANNEL 0
 RQ ROW_BUFFER_HIT:      95756  ROW_BUFFER_MISS:     173501
 DBUS_CONGESTED:        151
 WQ ROW_BUFFER_HIT:      45529  ROW_BUFFER_MISS:     130089  FULL:          0

 AVG_CONGESTED_CYCLE: 3
 All warmup complete: 2
Channel 0 Bank busy for read cycles: 0
Channel 0 Bank busy for write cycles: 0
Channel 0
Rank 0
0banks busy for read cycles: 54124043
0banks busy for write cycles: 42798
1banks busy for read cycles: 10774947
1banks busy for write cycles: 4839513
2banks busy for read cycles: 4186593
2banks busy for write cycles: 2515676
3banks busy for read cycles: 1159997
3banks busy for write cycles: 1164647
4banks busy for read cycles: 440326
4banks busy for write cycles: 561854
5banks busy for read cycles: 281656
5banks busy for write cycles: 395710
6banks busy for read cycles: 236060
6banks busy for write cycles: 360945
7banks busy for read cycles: 193875
7banks busy for write cycles: 431749
8banks busy for read cycles: 287830
8banks busy for write cycles: 973875

CPU 0 Branch Prediction Accuracy: 94.7774% MPKI: 9.54576 Average ROB Occupancy at Mispredict: 39.4634
Branch types
NOT_BRANCH: 40860721 81.7214%
BRANCH_DIRECT_JUMP: 483896 0.967792%
BRANCH_INDIRECT: 85593 0.171186%
BRANCH_CONDITIONAL: 6230321 12.4606%
BRANCH_DIRECT_CALL: 1028275 2.05655%
BRANCH_INDIRECT_CALL: 140671 0.281342%
BRANCH_RETURN: 1170197 2.34039%
BRANCH_OTHER: 0 0%

@sumon_overall_L1D     37808      3104     68439    106185    796368    796368
@Sumon_Early_by_class_L1D     13909     19539      3417        20
@Sumon_Late_by_class_L1D      1459      1122       146        20

@Sumon_Early_by_cycle_L1D      8898      5138      2888      1588       934      5193      4843      2459      1886      2062      1124       795
@Sumon_Late_by_cycle_L1D      1982       955       165         2         0         0         0         0         0         0         0         0
@Sumon_Early_stream_L1D      2531      1346      1206       767       453      2599      1107       796       971      1053       631       449
@Sumon_Early_CS_L1D      5889      3590      1393       591       343      2094      3355      1232       392       365       143       152
@Sumon_Early_CPLX_L1D       260       123       231       196       127       403       322       305       377       577       319       177
@Sumon_Late_stream_L1D      1035       420         4         0         0         0         0         0         0         0         0         0
@Sumon_Late_CS_L1D       502       459       159         2         0         0         0         0         0         0         0         0
@Sumon_Late_CPLX_L1D        98        46         2         0         0         0         0         0         0         0         0         0
@sumon_overall_L2C     14012       779     79242     93463    138558    138558
@Sumon_Early_by_class_L2C      1969      2835       942         0
@Sumon_Late_by_class_L2C         0        51         0         0

@Sumon_Early_by_cycle_L2C      1097       534       680       373       336      1137       746       630       634       772       510      6563
@Sumon_Late_by_cycle_L2C       448       328         3         0         0         0         0         0         0         0         0         0
@Sumon_Early_stream_L2C         0         0         0         0         0         0         2         1         5        15       112      1834
@Sumon_Early_CS_L2C       119        48        83        29        46       171        88        79        84       107        68      1913
@Sumon_Early_CPLX_L2C         0         0         0         0         0         0         0         0         4        10        29       899
@Sumon_Late_stream_L2C         0         0         0         0         0         0         0         0         0         0         0         0
@Sumon_Late_CS_L2C        21        29         1         0         0         0         0         0         0         0         0         0
@Sumon_Late_CPLX_L2C         0         0         0         0         0         0         0         0         0         0         0         0
DRAM PAGES: 1048576
Allocated PAGES: 5569
