
*** ChampSim Multicore Out-of-Order Simulator ***

Warmup Instructions: 10000000
Simulation Instructions: 50000000
Number of CPUs: 1
LLC sets: 2048
LLC ways: 16
Off-chip DRAM Size: 4096 MB Channels: 1 Width: 64-bit Data Rate: 6400 MT/s
CPU 0 runs traces/clientserver/server_034.champsimtrace.xz
.xz
CPU 0 Bimodal branch predictor
BTB has LRU replacement policy
ITLB has LRU replacement policy
DTLB has LRU replacement policy
STLB has LRU replacement policy
L1I has LRU replacement policy
IP Table Entries: 256
L1D has LRU replacement policy
IP_Table L2 entries: 256
L2C has LRU replacement policy
LLC has LRU replacement policy
Heartbeat CPU 0 instructions: 10000000 cycles: 2763005 heartbeat IPC: 3.61925 cumulative IPC: 3.61925 (Simulation time: 0 hr 8 min 27 sec) 

Warmup complete CPU 0 instructions: 10000004 cycles: 2763006 (Simulation time: 0 hr 8 min 27 sec) 

Heartbeat CPU 0 instructions: 20000002 cycles: 23104405 heartbeat IPC: 0.491608 cumulative IPC: 0.491608 (Simulation time: 0 hr 16 min 33 sec) 
Heartbeat CPU 0 instructions: 30000001 cycles: 43486985 heartbeat IPC: 0.490615 cumulative IPC: 0.491111 (Simulation time: 0 hr 24 min 44 sec) 
Heartbeat CPU 0 instructions: 40000000 cycles: 63772714 heartbeat IPC: 0.492957 cumulative IPC: 0.491725 (Simulation time: 0 hr 32 min 49 sec) 
Heartbeat CPU 0 instructions: 50000001 cycles: 83953597 heartbeat IPC: 0.495519 cumulative IPC: 0.492668 (Simulation time: 0 hr 40 min 55 sec) 
Heartbeat CPU 0 instructions: 60000002 cycles: 104050957 heartbeat IPC: 0.497578 cumulative IPC: 0.493642 (Simulation time: 0 hr 48 min 46 sec) 
Finished CPU 0 instructions: 50000003 cycles: 101287964 cumulative IPC: 0.493642 (Simulation time: 0 hr 48 min 46 sec) 

ChampSim completed all CPUs

Region of Interest Statistics

CPU 0 cumulative IPC: 0.493642 instructions: 50000003 cycles: 101287964
ITLB TOTAL     ACCESS:    8927587  HIT:    8422739  MISS:     504848  HIT %:    94.3451  MISS %:    5.65492   MPKI: 10.097
ITLB LOAD TRANSLATION ACCESS:    8927587  HIT:    8422739  MISS:     504848  HIT %:    94.3451  MISS %:    5.65492   MPKI: 10.097
ITLB PREFETCH  REQUESTED:          0  ISSUED:          0  USEFUL:          0  USELESS:          0
ITLB USEFUL LOAD PREFETCHES:          0 PREFETCH ISSUED TO LOWER LEVEL:          0  ACCURACY: -nan
ITLB TIMELY PREFETCHES:          0 LATE PREFETCHES: 0 DROPPED PREFETCHES: 0
ITLB PREFETCHES SAME FILL-ORIGIN LEVEL: 0 DIFFERENT FILL-ORIGIN LEVEL: 0
ITLB AVERAGE MISS LATENCY: 9.04961 cycles
ITLB RQ	ACCESS:   10606452	FORWARD:          0	MERGED:    1553953	TO_CACHE:    9052499

DTLB TOTAL     ACCESS:   10780120  HIT:   10362901  MISS:     417219  HIT %:    96.1297  MISS %:    3.87026   MPKI: 8.34438
DTLB LOAD TRANSLATION ACCESS:   10780120  HIT:   10362901  MISS:     417219  HIT %:    96.1297  MISS %:    3.87026   MPKI: 8.34438
DTLB PREFETCH  REQUESTED:          0  ISSUED:          0  USEFUL:          0  USELESS:          0
DTLB USEFUL LOAD PREFETCHES:          0 PREFETCH ISSUED TO LOWER LEVEL:          0  ACCURACY: -nan
DTLB TIMELY PREFETCHES:          0 LATE PREFETCHES: 0 DROPPED PREFETCHES: 0
DTLB PREFETCHES SAME FILL-ORIGIN LEVEL: 0 DIFFERENT FILL-ORIGIN LEVEL: 0
DTLB AVERAGE MISS LATENCY: 9.22391 cycles
DTLB RQ	ACCESS:   14319938	FORWARD:          0	MERGED:    3528617	TO_CACHE:   10791321

STLB TOTAL     ACCESS:    1166903  HIT:    1165730  MISS:       1173  HIT %:    99.8995  MISS %:   0.100522   MPKI: 0.02346
STLB LOAD TRANSLATION ACCESS:     922067  HIT:     920894  MISS:       1173  HIT %:    99.8728  MISS %:   0.127214   MPKI: 0.02346
STLB TRANSLATION FROM L1D PREFETCHER ACCESS:     244836  HIT:     244836  MISS:          0  HIT %:        100  MISS %:          0   MPKI: 0
STLB PREFETCH  REQUESTED:          0  ISSUED:          0  USEFUL:          0  USELESS:          0
STLB USEFUL LOAD PREFETCHES:          0 PREFETCH ISSUED TO LOWER LEVEL:          0  ACCURACY: -nan
STLB TIMELY PREFETCHES:          0 LATE PREFETCHES: 0 DROPPED PREFETCHES: 0
STLB PREFETCHES SAME FILL-ORIGIN LEVEL: 0 DIFFERENT FILL-ORIGIN LEVEL: 0
STLB AVERAGE MISS LATENCY: 88.5806 cycles
STLB RQ	ACCESS:    1278936	FORWARD:          0	MERGED:     112033	TO_CACHE:    1166903

STLB Hit, L1D data hit: 0
STLB Hit, L2C data hit: 0
STLB Hit, LLC data hit: 0
STLB Hit, LLC data miss: 0
STLB STLB hints to L2: 0
L1D TOTAL     ACCESS:   14541819  HIT:   13659432  MISS:     882387  HIT %:    93.9321  MISS %:    6.06793   MPKI: 17.6477
L1D LOAD      ACCESS:    7868259  HIT:    7262767  MISS:     605492  HIT %:    92.3046  MISS %:    7.69537   MPKI: 12.1098
L1D RFO       ACCESS:    6324384  HIT:    6214474  MISS:     109910  HIT %:    98.2621  MISS %:    1.73788   MPKI: 2.1982
L1D PREFETCH  ACCESS:     349176  HIT:     182191  MISS:     166985  HIT %:    52.1774  MISS %:    47.8226   MPKI: 3.3397
L1D PREFETCH  REQUESTED:     714649  ISSUED:     714605  USEFUL:      21747  USELESS:     145302
L1D USEFUL LOAD PREFETCHES:      21747 PREFETCH ISSUED TO LOWER LEVEL:     168125  ACCURACY: 12.935
L1D TIMELY PREFETCHES:      21747 LATE PREFETCHES: 1120 DROPPED PREFETCHES: 0
L1D PREFETCHES SAME FILL-ORIGIN LEVEL: 168125 DIFFERENT FILL-ORIGIN LEVEL: 0
L1D AVERAGE MISS LATENCY: 47927.5 cycles
L1D RQ	ACCESS:   11178625	FORWARD:          0	MERGED:    3137037	TO_CACHE:    7887656
L1D WQ	ACCESS:    6515360	FORWARD:     154799	MERGED:      83078	TO_CACHE:    6432282
L1D PQ	ACCESS:     357736	FORWARD:          0	MERGED:          0	TO_CACHE:     356869

L1D UNIQUE REGIONS ACCESSED: 0
L1D REGIONS CONFLICTS: 0
L1D Cross Page Prefetch Requests: 0
L1D Same Page Prefetch Requests: 416589
L1D ROI Sum of L1D PQ occupancy: 4615577
L1D PREFETCHES PUSHED FROM L2C: 0
L1I TOTAL     ACCESS:    9872182  HIT:    6565922  MISS:    3306260  HIT %:    66.5093  MISS %:    33.4907   MPKI: 66.1252
L1I LOAD      ACCESS:    9872182  HIT:    6565922  MISS:    3306260  HIT %:    66.5093  MISS %:    33.4907   MPKI: 66.1252
L1I PREFETCH  REQUESTED:          0  ISSUED:          0  USEFUL:          0  USELESS:          0
L1I USEFUL LOAD PREFETCHES:          0 PREFETCH ISSUED TO LOWER LEVEL:          0  ACCURACY: -nan
L1I TIMELY PREFETCHES:          0 LATE PREFETCHES: 0 DROPPED PREFETCHES: 0
L1I PREFETCHES SAME FILL-ORIGIN LEVEL: 0 DIFFERENT FILL-ORIGIN LEVEL: 0
L1I AVERAGE MISS LATENCY: 14.6763 cycles
L1I RQ	ACCESS:   14722180	FORWARD:          0	MERGED:    4115728	TO_CACHE:   10606452

BTB TOTAL     ACCESS:    6353112  HIT:    5342179  MISS:    1010933  HIT %:    84.0876  MISS %:    15.9124   MPKI: 20.2187
BTB BRANCH_DIRECT_JUMP	ACCESS:     767599  HIT:     688313  MISS:      79286
BTB BRANCH_INDIRECT	ACCESS:     108584  HIT:      73824  MISS:      34760
BTB BRANCH_CONDITIONAL	ACCESS:    2951216  HIT:    2732155  MISS:     219061
BTB BRANCH_DIRECT_CALL	ACCESS:    1050916  HIT:     928179  MISS:     122737
BTB BRANCH_INDIRECT_CALL	ACCESS:     211941  HIT:     142942  MISS:      68999
BTB BRANCH_RETURN	ACCESS:    1262856  HIT:     776766  MISS:     486090
BTB BRANCH_OTHER ACCESS:          0  HIT:          0  MISS:          0

L2C TOTAL     ACCESS:    5009864  HIT:    4821062  MISS:     188802  HIT %:    96.2314  MISS %:    3.76861   MPKI: 3.77604
L2C LOAD      ACCESS:    3910627  HIT:    3798333  MISS:     112294  HIT %:    97.1285  MISS %:    2.87151   MPKI: 2.24588
L2C DATA LOAD MPKI: 0.9761
L2C INSTRUCTION LOAD MPKI: 1.26978
L2C RFO       ACCESS:     109890  HIT:      99585  MISS:      10305  HIT %:    90.6224  MISS %:    9.37756   MPKI: 0.2061
L2C PREFETCH  ACCESS:     715546  HIT:     654476  MISS:      61070  HIT %:    91.4653  MISS %:    8.53474   MPKI: 1.2214
L2C DATA PREFETCH MPKI: 1.2214
L2C INSTRUCTION PREFETCH MPKI: 0
L2C WRITEBACK ACCESS:     272589  HIT:     267992  MISS:       4597  HIT %:    98.3136  MISS %:    1.68642   MPKI: 0.09194
L2C LOAD TRANSLATION ACCESS:       1212  HIT:        676  MISS:        536  HIT %:    55.7756  MISS %:    44.2244   MPKI: 0.01072
L2C PREFETCH  REQUESTED:     554241  ISSUED:     554241  USEFUL:      19510  USELESS:      41777
L2C USEFUL LOAD PREFETCHES:      19510 PREFETCH ISSUED TO LOWER LEVEL:      61658  ACCURACY: 31.6423
L2C TIMELY PREFETCHES:      19510 LATE PREFETCHES: 588 DROPPED PREFETCHES: 0
L2C PREFETCHES SAME FILL-ORIGIN LEVEL: 43409 DIFFERENT FILL-ORIGIN LEVEL: 0
L2C AVERAGE MISS LATENCY: 38.3705 cycles
L2C RQ	ACCESS:    4021734	FORWARD:          0	MERGED:          0	TO_CACHE:    4021730
L2C WQ	ACCESS:     272589	FORWARD:          5	MERGED:          0	TO_CACHE:     272589
L2C PQ	ACCESS:     722366	FORWARD:          0	MERGED:       4047	TO_CACHE:     718318

L2C Instructions Evicting Data 23771
L2C Translations Evicting Data 497
L2C Data Evicting Data 97269
L2C Instructions Evicting Instructions 39568
L2C Translations Evicting Instructions 28
L2C Data Evicting Instructions 21912
L2C Instructions Evicting Translations 71
L2C Translations Evicting Translations 4
L2C Data Evicting Translations 542
L2C Dense regions hint from L2: 0
PSCL5 TOTAL     ACCESS:       1173  HIT:       1173  MISS:          0  HIT %:        100  MISS %:          0   MPKI: 0
PSCL5 LOAD TRANSLATION ACCESS:       1173  HIT:       1173  MISS:          0  HIT %:        100  MISS %:          0   MPKI: 0
PSCL5 PREFETCH  REQUESTED:          0  ISSUED:          0  USEFUL:          0  USELESS:          0
PSCL5 USEFUL LOAD PREFETCHES:          0 PREFETCH ISSUED TO LOWER LEVEL:          0  ACCURACY: -nan
PSCL5 TIMELY PREFETCHES:          0 LATE PREFETCHES: 0 DROPPED PREFETCHES: 0
PSCL5 PREFETCHES SAME FILL-ORIGIN LEVEL: 0 DIFFERENT FILL-ORIGIN LEVEL: 0

PSCL4 TOTAL     ACCESS:        994  HIT:        991  MISS:          3  HIT %:    99.6982  MISS %:   0.301811   MPKI: 6e-05
PSCL4 LOAD TRANSLATION ACCESS:        994  HIT:        991  MISS:          3  HIT %:    99.6982  MISS %:   0.301811   MPKI: 6e-05
PSCL4 PREFETCH  REQUESTED:          0  ISSUED:          0  USEFUL:          0  USELESS:          0
PSCL4 USEFUL LOAD PREFETCHES:          0 PREFETCH ISSUED TO LOWER LEVEL:          0  ACCURACY: -nan
PSCL4 TIMELY PREFETCHES:          0 LATE PREFETCHES: 0 DROPPED PREFETCHES: 0
PSCL4 PREFETCHES SAME FILL-ORIGIN LEVEL: 0 DIFFERENT FILL-ORIGIN LEVEL: 0

PSCL3 TOTAL     ACCESS:        994  HIT:        991  MISS:          3  HIT %:    99.6982  MISS %:   0.301811   MPKI: 6e-05
PSCL3 LOAD TRANSLATION ACCESS:        994  HIT:        991  MISS:          3  HIT %:    99.6982  MISS %:   0.301811   MPKI: 6e-05
PSCL3 PREFETCH  REQUESTED:          0  ISSUED:          0  USEFUL:          0  USELESS:          0
PSCL3 USEFUL LOAD PREFETCHES:          0 PREFETCH ISSUED TO LOWER LEVEL:          0  ACCURACY: -nan
PSCL3 TIMELY PREFETCHES:          0 LATE PREFETCHES: 0 DROPPED PREFETCHES: 0
PSCL3 PREFETCHES SAME FILL-ORIGIN LEVEL: 0 DIFFERENT FILL-ORIGIN LEVEL: 0

PSCL2 TOTAL     ACCESS:       1173  HIT:       1133  MISS:         40  HIT %:    96.5899  MISS %:    3.41006   MPKI: 0.0008
PSCL2 LOAD TRANSLATION ACCESS:       1173  HIT:       1133  MISS:         40  HIT %:    96.5899  MISS %:    3.41006   MPKI: 0.0008
PSCL2 PREFETCH  REQUESTED:          0  ISSUED:          0  USEFUL:          0  USELESS:          0
PSCL2 USEFUL LOAD PREFETCHES:          0 PREFETCH ISSUED TO LOWER LEVEL:          0  ACCURACY: -nan
PSCL2 TIMELY PREFETCHES:          0 LATE PREFETCHES: 0 DROPPED PREFETCHES: 0
PSCL2 PREFETCHES SAME FILL-ORIGIN LEVEL: 0 DIFFERENT FILL-ORIGIN LEVEL: 0

LLC TOTAL     ACCESS:     234569  HIT:     220502  MISS:      14067  HIT %:     94.003  MISS %:    5.99696   MPKI: 0.28134
LLC LOAD      ACCESS:     111744  HIT:     107423  MISS:       4321  HIT %:    96.1331  MISS %:    3.86687   MPKI: 0.08642
LLC RFO       ACCESS:      10266  HIT:       9497  MISS:        769  HIT %:    92.5093  MISS %:    7.49075   MPKI: 0.01538
LLC PREFETCH  ACCESS:      61656  HIT:      52809  MISS:       8847  HIT %:     85.651  MISS %:     14.349   MPKI: 0.17694
LLC WRITEBACK ACCESS:      50367  HIT:      50367  MISS:          0  HIT %:        100  MISS %:          0   MPKI: 0
LLC LOAD TRANSLATION ACCESS:        536  HIT:        406  MISS:        130  HIT %:    75.7463  MISS %:    24.2537   MPKI: 0.0026
LLC PREFETCH  REQUESTED:          0  ISSUED:          0  USEFUL:       2809  USELESS:         77
LLC USEFUL LOAD PREFETCHES:       2809 PREFETCH ISSUED TO LOWER LEVEL:       8847  ACCURACY: 31.7509
LLC TIMELY PREFETCHES:       2809 LATE PREFETCHES: 0 DROPPED PREFETCHES: 0
LLC PREFETCHES SAME FILL-ORIGIN LEVEL: 0 DIFFERENT FILL-ORIGIN LEVEL: 0
LLC AVERAGE MISS LATENCY: 122.347 cycles
LLC RQ	ACCESS:     122547	FORWARD:          0	MERGED:          0	TO_CACHE:     122546
LLC WQ	ACCESS:      50367	FORWARD:          3	MERGED:          0	TO_CACHE:      50367
LLC PQ	ACCESS:      61658	FORWARD:          0	MERGED:          0	TO_CACHE:      61656

LLC Dense regions hint to LLC: 0

RAW hits: 865495
Loads Generated: 12044118
Loads sent to L1D: 11178625
Stores Generated: 6515355
Stores sent to L1D: 6515360
Major fault: 0 Minor fault: 1190
Allocated PAGES: 1190

stream: 
stream:times selected: 430681
stream:pref_filled: 112759
stream:pref_useful: 13029
stream:pref_late: 378
stream:misses: 7611
stream:misses_by_poll: 0

CS: 
CS:times selected: 6689
CS:pref_filled: 1482
CS:pref_useful: 1091
CS:pref_late: 312
CS:misses: 35
CS:misses_by_poll: 0

CPLX: 
CPLX:times selected: 426674
CPLX:pref_filled: 81132
CPLX:pref_useful: 9802
CPLX:pref_late: 490
CPLX:misses: 35682
CPLX:misses_by_poll: 3

NL_L1: 
NL:times selected: 822
NL:pref_filled: 216
NL:pref_useful: 13
NL:pref_late: 18
NL:misses: 289
NL:misses_by_poll: 0

total selections: 864866
total_filled: 166985
total_useful: 21747
total_late: 1577
total_polluted: 3
total_misses_after_warmup: 624889
conflicts: 3300015
Degree Incremented Times: 0
Degree Decremented Times: 112004

L1 IP Table Write Accesses: 4367864
L1 IP Table Read Accesses: 1067849
L1 RST Write Accesses: 374282
L1 RST Read Accesses: 748564
L1 CSPT Write Accesses: 374282
L1 CSPT Read Accesses: 745862
L1 RR Filter Tag Write Accesses: 357780
L1 RR Filter Tag Read Accesses: 16632960
L1 IP Table Tag Write Accesses: 7887656
L1 IP Table Tag Read Accesses: 7887656
L1 RST Tag Write Accesses: 0
L1 RST Tag Read Accesses: 4076524
L1 RR Filter Write Accesses: 0
L1 RR Filter Read Accesses: 589294
test: 196040
L2 IP Table Read Accesses: 977847
L2 IP Table Write Accesses: 1386226
L2 IP Table Tag Read Accesses: 767867
L2 IP Table Tag Write Accesses: 767867

DRAM Statistics
 CHANNEL 0
 RQ ROW_BUFFER_HIT:       7391  ROW_BUFFER_MISS:       6676
 DBUS_CONGESTED:          0
 WQ ROW_BUFFER_HIT:          7  ROW_BUFFER_MISS:         71  FULL:          0

 AVG_CONGESTED_CYCLE: -
 All warmup complete: 2
Channel 0 Bank busy for read cycles: 0
Channel 0 Bank busy for write cycles: 0
Channel 0
Rank 0
0banks busy for read cycles: 100490037
0banks busy for write cycles: 57
1banks busy for read cycles: 422860
1banks busy for write cycles: 7733
2banks busy for read cycles: 233024
2banks busy for write cycles: 1871
3banks busy for read cycles: 70816
3banks busy for write cycles: 437
4banks busy for read cycles: 41134
4banks busy for write cycles: 49
5banks busy for read cycles: 15029
5banks busy for write cycles: 105
6banks busy for read cycles: 3646
6banks busy for write cycles: 31
7banks busy for read cycles: 1034
7banks busy for write cycles: 0
8banks busy for read cycles: 102
8banks busy for write cycles: 0

CPU 0 Branch Prediction Accuracy: 93.1694% MPKI: 13.3539 Average ROB Occupancy at Mispredict: 17.7119
Branch types
NOT_BRANCH: 40224723 80.4494%
BRANCH_DIRECT_JUMP: 767599 1.5352%
BRANCH_INDIRECT: 108584 0.217168%
BRANCH_CONDITIONAL: 6373089 12.7462%
BRANCH_DIRECT_CALL: 1050916 2.10183%
BRANCH_INDIRECT_CALL: 211941 0.423882%
BRANCH_RETURN: 1262856 2.52571%
BRANCH_OTHER: 0 0%

@sumon_overall_L1D     21747      1120    145302    166985    714605    714649
@Sumon_Early_by_class_L1D     10877      1052      8633         2
@Sumon_Late_by_class_L1D        92       312       367         2

@Sumon_Early_by_cycle_L1D      6481      3466      2862      1217      2678       783       710       641       251      1811       618       229
@Sumon_Late_by_cycle_L1D      1098        22         0         0         0         0         0         0         0         0         0         0
@Sumon_Early_stream_L1D      3848      2758      1667       505       511       132       272       205        99       208       501       171
@Sumon_Early_CS_L1D       545       170        49       113        50        14         8        11        31        61         0         0
@Sumon_Early_CPLX_L1D      1733       361       951       252      2043       628       428       420       120      1536       108        53
@Sumon_Late_stream_L1D        92         0         0         0         0         0         0         0         0         0         0         0
@Sumon_Late_CS_L1D       310         2         0         0         0         0         0         0         0         0         0         0
@Sumon_Late_CPLX_L1D       350        17         0         0         0         0         0         0         0         0         0         0
@sumon_overall_L2C     19510       588     41777     61070    554241    554241
@Sumon_Early_by_class_L2C      1170       103       818         0
@Sumon_Late_by_class_L2C         0         0         0         0

@Sumon_Early_by_cycle_L2C      2535      1685      3575      2162       391      1762       383        71       872       929      2564      2581
@Sumon_Late_by_cycle_L2C       520        68         0         0         0         0         0         0         0         0         0         0
@Sumon_Early_stream_L2C         0         0         0         0         0         0         0         0         1        11       469       689
@Sumon_Early_CS_L2C         0         0         0         0         0         0         0         0         0        24         8        71
@Sumon_Early_CPLX_L2C         0         0         0         0         0         0         0         0         0        22        69       727
@Sumon_Late_stream_L2C         0         0         0         0         0         0         0         0         0         0         0         0
@Sumon_Late_CS_L2C         0         0         0         0         0         0         0         0         0         0         0         0
@Sumon_Late_CPLX_L2C         0         0         0         0         0         0         0         0         0         0         0         0
DRAM PAGES: 1048576
Allocated PAGES: 1190
