
*** ChampSim Multicore Out-of-Order Simulator ***

Warmup Instructions: 10000000
Simulation Instructions: 50000000
Number of CPUs: 1
LLC sets: 2048
LLC ways: 16
Off-chip DRAM Size: 4096 MB Channels: 1 Width: 64-bit Data Rate: 6400 MT/s
CPU 0 runs traces/clientserver/server_009.champsimtrace.xz
.xz
CPU 0 Bimodal branch predictor
BTB has LRU replacement policy
ITLB has LRU replacement policy
DTLB has LRU replacement policy
STLB has LRU replacement policy
L1I has LRU replacement policy
IP Table Entries: 256
L1D has LRU replacement policy
IP_Table L2 entries: 256
L2C has LRU replacement policy
LLC has LRU replacement policy
Heartbeat CPU 0 instructions: 10000001 cycles: 2770921 heartbeat IPC: 3.60891 cumulative IPC: 3.60891 (Simulation time: 0 hr 7 min 56 sec) 

Warmup complete CPU 0 instructions: 10000001 cycles: 2770921 (Simulation time: 0 hr 7 min 56 sec) 

Heartbeat CPU 0 instructions: 20000003 cycles: 23516109 heartbeat IPC: 0.48204 cumulative IPC: 0.48204 (Simulation time: 0 hr 16 min 11 sec) 
Heartbeat CPU 0 instructions: 30000002 cycles: 44454591 heartbeat IPC: 0.477589 cumulative IPC: 0.479804 (Simulation time: 0 hr 24 min 31 sec) 
Heartbeat CPU 0 instructions: 40000000 cycles: 65909688 heartbeat IPC: 0.46609 cumulative IPC: 0.475144 (Simulation time: 0 hr 32 min 58 sec) 
Heartbeat CPU 0 instructions: 50000002 cycles: 86542565 heartbeat IPC: 0.484663 cumulative IPC: 0.477489 (Simulation time: 0 hr 41 min 24 sec) 
Heartbeat CPU 0 instructions: 60000001 cycles: 112987711 heartbeat IPC: 0.378141 cumulative IPC: 0.453651 (Simulation time: 0 hr 51 min 22 sec) 
Finished CPU 0 instructions: 50000000 cycles: 110216790 cumulative IPC: 0.453651 (Simulation time: 0 hr 51 min 22 sec) 

ChampSim completed all CPUs

Region of Interest Statistics

CPU 0 cumulative IPC: 0.453651 instructions: 50000000 cycles: 110216790
ITLB TOTAL     ACCESS:    8298251  HIT:    8113098  MISS:     185153  HIT %:    97.7688  MISS %:    2.23123   MPKI: 3.70306
ITLB LOAD TRANSLATION ACCESS:    8298251  HIT:    8113098  MISS:     185153  HIT %:    97.7688  MISS %:    2.23123   MPKI: 3.70306
ITLB PREFETCH  REQUESTED:          0  ISSUED:          0  USEFUL:          0  USELESS:          0
ITLB USEFUL LOAD PREFETCHES:          0 PREFETCH ISSUED TO LOWER LEVEL:          0  ACCURACY: -nan
ITLB TIMELY PREFETCHES:          0 LATE PREFETCHES: 0 DROPPED PREFETCHES: 0
ITLB PREFETCHES SAME FILL-ORIGIN LEVEL: 0 DIFFERENT FILL-ORIGIN LEVEL: 0
ITLB AVERAGE MISS LATENCY: 17.5173 cycles
ITLB RQ	ACCESS:   10025284	FORWARD:          0	MERGED:    1679228	TO_CACHE:    8346056

DTLB TOTAL     ACCESS:   10477817  HIT:    9436995  MISS:    1040822  HIT %:    90.0664  MISS %:    9.93358   MPKI: 20.8164
DTLB LOAD TRANSLATION ACCESS:   10477817  HIT:    9436995  MISS:    1040822  HIT %:    90.0664  MISS %:    9.93358   MPKI: 20.8164
DTLB PREFETCH  REQUESTED:          0  ISSUED:          0  USEFUL:          0  USELESS:          0
DTLB USEFUL LOAD PREFETCHES:          0 PREFETCH ISSUED TO LOWER LEVEL:          0  ACCURACY: -nan
DTLB TIMELY PREFETCHES:          0 LATE PREFETCHES: 0 DROPPED PREFETCHES: 0
DTLB PREFETCHES SAME FILL-ORIGIN LEVEL: 0 DIFFERENT FILL-ORIGIN LEVEL: 0
DTLB AVERAGE MISS LATENCY: 12.6925 cycles
DTLB RQ	ACCESS:   13112762	FORWARD:          0	MERGED:    2600002	TO_CACHE:   10512760

STLB TOTAL     ACCESS:    1976919  HIT:    1865808  MISS:     111111  HIT %:    94.3796  MISS %:    5.62041   MPKI: 2.22222
STLB LOAD TRANSLATION ACCESS:    1225975  HIT:    1114864  MISS:     111111  HIT %:    90.9369  MISS %:    9.06307   MPKI: 2.22222
STLB TRANSLATION FROM L1D PREFETCHER ACCESS:     750944  HIT:     750944  MISS:          0  HIT %:        100  MISS %:          0   MPKI: 0
STLB PREFETCH  REQUESTED:          0  ISSUED:          0  USEFUL:          0  USELESS:          0
STLB USEFUL LOAD PREFETCHES:          0 PREFETCH ISSUED TO LOWER LEVEL:          0  ACCURACY: -nan
STLB TIMELY PREFETCHES:          0 LATE PREFETCHES: 0 DROPPED PREFETCHES: 0
STLB PREFETCHES SAME FILL-ORIGIN LEVEL: 0 DIFFERENT FILL-ORIGIN LEVEL: 0
STLB AVERAGE MISS LATENCY: 48.6308 cycles
STLB RQ	ACCESS:    2652232	FORWARD:          0	MERGED:     675313	TO_CACHE:    1976919

STLB Hit, L1D data hit: 0
STLB Hit, L2C data hit: 0
STLB Hit, LLC data hit: 0
STLB Hit, LLC data miss: 0
STLB STLB hints to L2: 0
L1D TOTAL     ACCESS:   14369320  HIT:   12372988  MISS:    1996332  HIT %:     86.107  MISS %:     13.893   MPKI: 39.9266
L1D LOAD      ACCESS:    8124405  HIT:    6979905  MISS:    1144500  HIT %:    85.9128  MISS %:    14.0872   MPKI: 22.89
L1D RFO       ACCESS:    4853271  HIT:    4757162  MISS:      96109  HIT %:    98.0197  MISS %:    1.98029   MPKI: 1.92218
L1D PREFETCH  ACCESS:    1391644  HIT:     635921  MISS:     755723  HIT %:    45.6957  MISS %:    54.3043   MPKI: 15.1145
L1D PREFETCH  REQUESTED:    2852804  ISSUED:    2852681  USEFUL:      82022  USELESS:     673449
L1D USEFUL LOAD PREFETCHES:      82022 PREFETCH ISSUED TO LOWER LEVEL:     778500  ACCURACY: 10.5359
L1D TIMELY PREFETCHES:      82022 LATE PREFETCHES: 22640 DROPPED PREFETCHES: 0
L1D PREFETCHES SAME FILL-ORIGIN LEVEL: 778500 DIFFERENT FILL-ORIGIN LEVEL: 0
L1D AVERAGE MISS LATENCY: 1.05444e+06 cycles
L1D RQ	ACCESS:   11461135	FORWARD:          0	MERGED:    3235422	TO_CACHE:    8150330
L1D WQ	ACCESS:    5045877	FORWARD:      75550	MERGED:      83445	TO_CACHE:    4962432
L1D PQ	ACCESS:    1426424	FORWARD:          0	MERGED:          0	TO_CACHE:    1426257

L1D UNIQUE REGIONS ACCESSED: 0
L1D REGIONS CONFLICTS: 0
L1D Cross Page Prefetch Requests: 0
L1D Same Page Prefetch Requests: 1474897
L1D ROI Sum of L1D PQ occupancy: 18722287
L1D PREFETCHES PUSHED FROM L2C: 0
L1I TOTAL     ACCESS:    9635525  HIT:    8421443  MISS:    1214082  HIT %:    87.3999  MISS %:    12.6001   MPKI: 24.2816
L1I LOAD      ACCESS:    9635525  HIT:    8421443  MISS:    1214082  HIT %:    87.3999  MISS %:    12.6001   MPKI: 24.2816
L1I PREFETCH  REQUESTED:          0  ISSUED:          0  USEFUL:          0  USELESS:          0
L1I USEFUL LOAD PREFETCHES:          0 PREFETCH ISSUED TO LOWER LEVEL:          0  ACCURACY: -nan
L1I TIMELY PREFETCHES:          0 LATE PREFETCHES: 0 DROPPED PREFETCHES: 0
L1I PREFETCHES SAME FILL-ORIGIN LEVEL: 0 DIFFERENT FILL-ORIGIN LEVEL: 0
L1I AVERAGE MISS LATENCY: 31.0834 cycles
L1I RQ	ACCESS:   14396259	FORWARD:          0	MERGED:    4370975	TO_CACHE:   10025284

BTB TOTAL     ACCESS:    5173686  HIT:    4398171  MISS:     775515  HIT %:    85.0104  MISS %:    14.9896   MPKI: 15.5103
BTB BRANCH_DIRECT_JUMP	ACCESS:     463492  HIT:     404158  MISS:      59334
BTB BRANCH_INDIRECT	ACCESS:     174870  HIT:     123350  MISS:      51520
BTB BRANCH_CONDITIONAL	ACCESS:    2812699  HIT:    2571063  MISS:     241636
BTB BRANCH_DIRECT_CALL	ACCESS:     679008  HIT:     567416  MISS:     111592
BTB BRANCH_INDIRECT_CALL	ACCESS:     165073  HIT:     152920  MISS:      12153
BTB BRANCH_RETURN	ACCESS:     878544  HIT:     579264  MISS:     299280
BTB BRANCH_OTHER ACCESS:          0  HIT:          0  MISS:          0

L2C TOTAL     ACCESS:    4003488  HIT:    2759671  MISS:    1243817  HIT %:    68.9317  MISS %:    31.0683   MPKI: 24.8763
L2C LOAD      ACCESS:    2335928  HIT:    1478495  MISS:     857433  HIT %:    63.2937  MISS %:    36.7063   MPKI: 17.1487
L2C DATA LOAD MPKI: 4.7237
L2C INSTRUCTION LOAD MPKI: 12.425
L2C RFO       ACCESS:      95971  HIT:      47726  MISS:      48245  HIT %:    49.7296  MISS %:    50.2704   MPKI: 0.9649
L2C PREFETCH  ACCESS:    1177367  HIT:     907035  MISS:     270332  HIT %:    77.0393  MISS %:    22.9607   MPKI: 5.40664
L2C DATA PREFETCH MPKI: 5.40664
L2C INSTRUCTION PREFETCH MPKI: 0
L2C WRITEBACK ACCESS:     253625  HIT:     250474  MISS:       3151  HIT %:    98.7576  MISS %:    1.24239   MPKI: 0.06302
L2C LOAD TRANSLATION ACCESS:     140597  HIT:      75941  MISS:      64656  HIT %:    54.0132  MISS %:    45.9868   MPKI: 1.29312
L2C PREFETCH  REQUESTED:     424370  ISSUED:     424370  USEFUL:      69197  USELESS:     200345
L2C USEFUL LOAD PREFETCHES:      69197 PREFETCH ISSUED TO LOWER LEVEL:     275824  ACCURACY: 25.0874
L2C TIMELY PREFETCHES:      69197 LATE PREFETCHES: 5492 DROPPED PREFETCHES: 0
L2C PREFETCHES SAME FILL-ORIGIN LEVEL: 208118 DIFFERENT FILL-ORIGIN LEVEL: 0
L2C AVERAGE MISS LATENCY: 41.9135 cycles
L2C RQ	ACCESS:    2572511	FORWARD:          0	MERGED:          0	TO_CACHE:    2572496
L2C WQ	ACCESS:     253625	FORWARD:         15	MERGED:          0	TO_CACHE:     253625
L2C PQ	ACCESS:    1202870	FORWARD:          0	MERGED:       4643	TO_CACHE:    1198227

L2C Instructions Evicting Data 279258
L2C Translations Evicting Data 29874
L2C Data Evicting Data 246578
L2C Instructions Evicting Instructions 309247
L2C Translations Evicting Instructions 31844
L2C Data Evicting Instructions 279392
L2C Instructions Evicting Translations 32743
L2C Translations Evicting Translations 2938
L2C Data Evicting Translations 28792
L2C Dense regions hint from L2: 0
PSCL5 TOTAL     ACCESS:     111111  HIT:     111111  MISS:          0  HIT %:        100  MISS %:          0   MPKI: 0
PSCL5 LOAD TRANSLATION ACCESS:     111111  HIT:     111111  MISS:          0  HIT %:        100  MISS %:          0   MPKI: 0
PSCL5 PREFETCH  REQUESTED:          0  ISSUED:          0  USEFUL:          0  USELESS:          0
PSCL5 USEFUL LOAD PREFETCHES:          0 PREFETCH ISSUED TO LOWER LEVEL:          0  ACCURACY: -nan
PSCL5 TIMELY PREFETCHES:          0 LATE PREFETCHES: 0 DROPPED PREFETCHES: 0
PSCL5 PREFETCHES SAME FILL-ORIGIN LEVEL: 0 DIFFERENT FILL-ORIGIN LEVEL: 0

PSCL4 TOTAL     ACCESS:     103017  HIT:     102700  MISS:        317  HIT %:    99.6923  MISS %:   0.307716   MPKI: 0.00634
PSCL4 LOAD TRANSLATION ACCESS:     103017  HIT:     102700  MISS:        317  HIT %:    99.6923  MISS %:   0.307716   MPKI: 0.00634
PSCL4 PREFETCH  REQUESTED:          0  ISSUED:          0  USEFUL:          0  USELESS:          0
PSCL4 USEFUL LOAD PREFETCHES:          0 PREFETCH ISSUED TO LOWER LEVEL:          0  ACCURACY: -nan
PSCL4 TIMELY PREFETCHES:          0 LATE PREFETCHES: 0 DROPPED PREFETCHES: 0
PSCL4 PREFETCHES SAME FILL-ORIGIN LEVEL: 0 DIFFERENT FILL-ORIGIN LEVEL: 0

PSCL3 TOTAL     ACCESS:     110284  HIT:     109400  MISS:        884  HIT %:    99.1984  MISS %:   0.801567   MPKI: 0.01768
PSCL3 LOAD TRANSLATION ACCESS:     110284  HIT:     109400  MISS:        884  HIT %:    99.1984  MISS %:   0.801567   MPKI: 0.01768
PSCL3 PREFETCH  REQUESTED:          0  ISSUED:          0  USEFUL:          0  USELESS:          0
PSCL3 USEFUL LOAD PREFETCHES:          0 PREFETCH ISSUED TO LOWER LEVEL:          0  ACCURACY: -nan
PSCL3 TIMELY PREFETCHES:          0 LATE PREFETCHES: 0 DROPPED PREFETCHES: 0
PSCL3 PREFETCHES SAME FILL-ORIGIN LEVEL: 0 DIFFERENT FILL-ORIGIN LEVEL: 0

PSCL2 TOTAL     ACCESS:     111111  HIT:      82752  MISS:      28359  HIT %:    74.4769  MISS %:    25.5231   MPKI: 0.56718
PSCL2 LOAD TRANSLATION ACCESS:     111111  HIT:      82752  MISS:      28359  HIT %:    74.4769  MISS %:    25.5231   MPKI: 0.56718
PSCL2 PREFETCH  REQUESTED:          0  ISSUED:          0  USEFUL:          0  USELESS:          0
PSCL2 USEFUL LOAD PREFETCHES:          0 PREFETCH ISSUED TO LOWER LEVEL:          0  ACCURACY: -nan
PSCL2 TIMELY PREFETCHES:          0 LATE PREFETCHES: 0 DROPPED PREFETCHES: 0
PSCL2 PREFETCHES SAME FILL-ORIGIN LEVEL: 0 DIFFERENT FILL-ORIGIN LEVEL: 0

LLC TOTAL     ACCESS:    1395219  HIT:    1299145  MISS:      96074  HIT %:    93.1141  MISS %:    6.88594   MPKI: 1.92148
LLC LOAD      ACCESS:     852083  HIT:     819181  MISS:      32902  HIT %:    96.1386  MISS %:    3.86136   MPKI: 0.65804
LLC RFO       ACCESS:      48103  HIT:      38234  MISS:       9869  HIT %:    79.4836  MISS %:    20.5164   MPKI: 0.19738
LLC PREFETCH  ACCESS:     275824  HIT:     225026  MISS:      50798  HIT %:    81.5832  MISS %:    18.4168   MPKI: 1.01596
LLC WRITEBACK ACCESS:     154553  HIT:     154499  MISS:         54  HIT %:    99.9651  MISS %:  0.0349395   MPKI: 0.00108
LLC LOAD TRANSLATION ACCESS:      64656  HIT:      62205  MISS:       2451  HIT %:    96.2092  MISS %:    3.79083   MPKI: 0.04902
LLC PREFETCH  REQUESTED:          0  ISSUED:          0  USEFUL:       4002  USELESS:      46531
LLC USEFUL LOAD PREFETCHES:       4002 PREFETCH ISSUED TO LOWER LEVEL:      50798  ACCURACY: 7.87826
LLC TIMELY PREFETCHES:       4002 LATE PREFETCHES: 0 DROPPED PREFETCHES: 0
LLC PREFETCHES SAME FILL-ORIGIN LEVEL: 0 DIFFERENT FILL-ORIGIN LEVEL: 0
LLC AVERAGE MISS LATENCY: 157.526 cycles
LLC RQ	ACCESS:     964842	FORWARD:          0	MERGED:          0	TO_CACHE:     964842
LLC WQ	ACCESS:     154553	FORWARD:          0	MERGED:          0	TO_CACHE:     154553
LLC PQ	ACCESS:     275824	FORWARD:          0	MERGED:          0	TO_CACHE:     275824

LLC Dense regions hint to LLC: 0

RAW hits: 770632
Loads Generated: 12231765
Loads sent to L1D: 11461135
Stores Generated: 5045874
Stores sent to L1D: 5045877
Major fault: 0 Minor fault: 5580
Allocated PAGES: 5580

stream: 
stream:times selected: 1223896
stream:pref_filled: 487206
stream:pref_useful: 28287
stream:pref_late: 2994
stream:misses: 300749
stream:misses_by_poll: 0

CS: 
CS:times selected: 237598
CS:pref_filled: 113838
CS:pref_useful: 27592
CS:pref_late: 2901
CS:misses: 25728
CS:misses_by_poll: 9

CPLX: 
CPLX:times selected: 1100436
CPLX:pref_filled: 169594
CPLX:pref_useful: 30761
CPLX:pref_late: 295
CPLX:misses: 311907
CPLX:misses_by_poll: 178

NL_L1: 
NL:times selected: 7687
NL:pref_filled: 1163
NL:pref_useful: 199
NL:pref_late: 15
NL:misses: 381
NL:misses_by_poll: 0

total selections: 2569617
total_filled: 755723
total_useful: 82022
total_late: 23367
total_polluted: 187
total_misses_after_warmup: 1170427
conflicts: 2383572
Degree Incremented Times: 20
Degree Decremented Times: 135805

L1 IP Table Write Accesses: 5231848
L1 IP Table Read Accesses: 2848276
L1 RST Write Accesses: 1156589
L1 RST Read Accesses: 2313178
L1 CSPT Write Accesses: 1156589
L1 CSPT Read Accesses: 2195460
L1 RR Filter Tag Write Accesses: 1426547
L1 RR Filter Tag Read Accesses: 60142601
L1 IP Table Tag Write Accesses: 8150332
L1 IP Table Tag Read Accesses: 8150332
L1 RST Tag Write Accesses: 0
L1 RST Tag Read Accesses: 10211311
L1 RR Filter Write Accesses: 0
L1 RR Filter Read Accesses: 1962567
test: 566579
L2 IP Table Read Accesses: 3358095
L2 IP Table Write Accesses: 3030991
L2 IP Table Tag Read Accesses: 1895257
L2 IP Table Tag Write Accesses: 1895257

DRAM Statistics
 CHANNEL 0
 RQ ROW_BUFFER_HIT:      17161  ROW_BUFFER_MISS:      78858
 DBUS_CONGESTED:         61
 WQ ROW_BUFFER_HIT:       7227  ROW_BUFFER_MISS:      45381  FULL:          0

 AVG_CONGESTED_CYCLE: 4
 All warmup complete: 2
Channel 0 Bank busy for read cycles: 0
Channel 0 Bank busy for write cycles: 0
Channel 0
Rank 0
0banks busy for read cycles: 95540021
0banks busy for write cycles: 26966
1banks busy for read cycles: 6773502
1banks busy for write cycles: 3582798
2banks busy for read cycles: 1752614
2banks busy for write cycles: 950836
3banks busy for read cycles: 422929
3banks busy for write cycles: 338229
4banks busy for read cycles: 149019
4banks busy for write cycles: 187928
5banks busy for read cycles: 47498
5banks busy for write cycles: 122459
6banks busy for read cycles: 21289
6banks busy for write cycles: 98553
7banks busy for read cycles: 9139
7banks busy for write cycles: 83863
8banks busy for read cycles: 14818
8banks busy for write cycles: 94330

CPU 0 Branch Prediction Accuracy: 93.4981% MPKI: 12.6299 Average ROB Occupancy at Mispredict: 24.535
Branch types
NOT_BRANCH: 40287182 80.5744%
BRANCH_DIRECT_JUMP: 463492 0.926984%
BRANCH_INDIRECT: 174870 0.34974%
BRANCH_CONDITIONAL: 7351543 14.7031%
BRANCH_DIRECT_CALL: 679008 1.35802%
BRANCH_INDIRECT_CALL: 165073 0.330146%
BRANCH_RETURN: 878544 1.75709%
BRANCH_OTHER: 0 0%

@sumon_overall_L1D     82022     22640    673449    755723   2852681   2852804
@Sumon_Early_by_class_L1D     24619     25395     30103        14
@Sumon_Late_by_class_L1D      2754      2530       245        14

@Sumon_Early_by_cycle_L1D     51278      3024     13709      1937      1721      3407      1279      1391      1957      1540       613       166
@Sumon_Late_by_cycle_L1D     22142       479        17         2         0         0         0         0         0         0         0         0
@Sumon_Early_stream_L1D     11706      1525      1702      1321      1179      2221       936      1109      1349      1082       366       123
@Sumon_Early_CS_L1D     21406       583      2220        82       214       586       106        65        48        16        61         8
@Sumon_Early_CPLX_L1D     17782       618      9555       295       117       420       194       194       412       364       123        29
@Sumon_Late_stream_L1D      2516       238         0         0         0         0         0         0         0         0         0         0
@Sumon_Late_CS_L1D      2321       191        17         1         0         0         0         0         0         0         0         0
@Sumon_Late_CPLX_L1D       219        25         0         1         0         0         0         0         0         0         0         0
@sumon_overall_L2C     69197      5492    200345    270332    424370    424370
@Sumon_Early_by_class_L2C      1471       409       594         0
@Sumon_Late_by_class_L2C         0         0         0         0

@Sumon_Early_by_cycle_L2C     11176      7953      8365      5264      3800      9947      4858      3384      2465      2522      1727      7736
@Sumon_Late_by_cycle_L2C      4096      1395         1         0         0         0         0         0         0         0         0         0
@Sumon_Early_stream_L2C         0         0         0         0         0         0         0         0         0        15       107      1349
@Sumon_Early_CS_L2C         0         0         0         0         0         0         0         0         0         3        58       348
@Sumon_Early_CPLX_L2C         0         0         0         0         0         0         0         0         0        18        43       533
@Sumon_Late_stream_L2C         0         0         0         0         0         0         0         0         0         0         0         0
@Sumon_Late_CS_L2C         0         0         0         0         0         0         0         0         0         0         0         0
@Sumon_Late_CPLX_L2C         0         0         0         0         0         0         0         0         0         0         0         0
DRAM PAGES: 1048576
Allocated PAGES: 5580
