
*** ChampSim Multicore Out-of-Order Simulator ***

Warmup Instructions: 10000000
Simulation Instructions: 50000000
Number of CPUs: 1
LLC sets: 2048
LLC ways: 16
Off-chip DRAM Size: 4096 MB Channels: 1 Width: 64-bit Data Rate: 800 MT/s
CPU 0 runs traces/clientserver/client_003.champsimtrace.xz
.xz
CPU 0 Bimodal branch predictor
BTB has LRU replacement policy
ITLB has LRU replacement policy
DTLB has LRU replacement policy
STLB has LRU replacement policy
L1I has LRU replacement policy
IP Table Entries: 256
L1D has LRU replacement policy
IP_Table L2 entries: 256
L2C has LRU replacement policy
LLC has LRU replacement policy
Heartbeat CPU 0 instructions: 10000000 cycles: 2803237 heartbeat IPC: 3.5673 cumulative IPC: 3.5673 (Simulation time: 0 hr 18 min 22 sec) 

Warmup complete CPU 0 instructions: 10000004 cycles: 2803238 (Simulation time: 0 hr 18 min 23 sec) 

Heartbeat CPU 0 instructions: 20000000 cycles: 20834423 heartbeat IPC: 0.554595 cumulative IPC: 0.554595 (Simulation time: 0 hr 35 min 18 sec) 
Heartbeat CPU 0 instructions: 30000000 cycles: 35982863 heartbeat IPC: 0.660134 cumulative IPC: 0.602779 (Simulation time: 0 hr 52 min 46 sec) 
Heartbeat CPU 0 instructions: 40000000 cycles: 50644881 heartbeat IPC: 0.682034 cumulative IPC: 0.627069 (Simulation time: 1 hr 10 min 24 sec) 
Heartbeat CPU 0 instructions: 50000003 cycles: 64822988 heartbeat IPC: 0.705313 cumulative IPC: 0.644956 (Simulation time: 1 hr 27 min 34 sec) 
Heartbeat CPU 0 instructions: 60000002 cycles: 79464387 heartbeat IPC: 0.682995 cumulative IPC: 0.652221 (Simulation time: 1 hr 43 min 20 sec) 
Finished CPU 0 instructions: 50000001 cycles: 76661151 cumulative IPC: 0.652221 (Simulation time: 1 hr 43 min 20 sec) 

ChampSim completed all CPUs

Region of Interest Statistics

CPU 0 cumulative IPC: 0.652221 instructions: 50000001 cycles: 76661151
ITLB TOTAL     ACCESS:    8475046  HIT:    8403648  MISS:      71398  HIT %:    99.1576  MISS %:    0.84245   MPKI: 1.42796
ITLB LOAD TRANSLATION ACCESS:    8475046  HIT:    8403648  MISS:      71398  HIT %:    99.1576  MISS %:    0.84245   MPKI: 1.42796
ITLB PREFETCH  REQUESTED:          0  ISSUED:          0  USEFUL:          0  USELESS:          0
ITLB USEFUL LOAD PREFETCHES:          0 PREFETCH ISSUED TO LOWER LEVEL:          0  ACCURACY: -nan
ITLB TIMELY PREFETCHES:          0 LATE PREFETCHES: 0 DROPPED PREFETCHES: 0
ITLB PREFETCHES SAME FILL-ORIGIN LEVEL: 0 DIFFERENT FILL-ORIGIN LEVEL: 0
ITLB AVERAGE MISS LATENCY: 9.98592 cycles
ITLB RQ	ACCESS:   10052295	FORWARD:          0	MERGED:    1556962	TO_CACHE:    8495333

DTLB TOTAL     ACCESS:   10994249  HIT:   10874024  MISS:     120225  HIT %:    98.9065  MISS %:    1.09353   MPKI: 2.4045
DTLB LOAD TRANSLATION ACCESS:   10994249  HIT:   10874024  MISS:     120225  HIT %:    98.9065  MISS %:    1.09353   MPKI: 2.4045
DTLB PREFETCH  REQUESTED:          0  ISSUED:          0  USEFUL:          0  USELESS:          0
DTLB USEFUL LOAD PREFETCHES:          0 PREFETCH ISSUED TO LOWER LEVEL:          0  ACCURACY: -nan
DTLB TIMELY PREFETCHES:          0 LATE PREFETCHES: 0 DROPPED PREFETCHES: 0
DTLB PREFETCHES SAME FILL-ORIGIN LEVEL: 0 DIFFERENT FILL-ORIGIN LEVEL: 0
DTLB AVERAGE MISS LATENCY: 10.3659 cycles
DTLB RQ	ACCESS:   15106764	FORWARD:          0	MERGED:    4104214	TO_CACHE:   11002550

STLB TOTAL     ACCESS:     490335  HIT:     488562  MISS:       1773  HIT %:    99.6384  MISS %:    0.36159   MPKI: 0.03546
STLB LOAD TRANSLATION ACCESS:     191623  HIT:     189850  MISS:       1773  HIT %:    99.0747  MISS %:   0.925254   MPKI: 0.03546
STLB TRANSLATION FROM L1D PREFETCHER ACCESS:     298712  HIT:     298712  MISS:          0  HIT %:        100  MISS %:          0   MPKI: 0
STLB PREFETCH  REQUESTED:          0  ISSUED:          0  USEFUL:          0  USELESS:          0
STLB USEFUL LOAD PREFETCHES:          0 PREFETCH ISSUED TO LOWER LEVEL:          0  ACCURACY: -nan
STLB TIMELY PREFETCHES:          0 LATE PREFETCHES: 0 DROPPED PREFETCHES: 0
STLB PREFETCHES SAME FILL-ORIGIN LEVEL: 0 DIFFERENT FILL-ORIGIN LEVEL: 0
STLB AVERAGE MISS LATENCY: 129.333 cycles
STLB RQ	ACCESS:     564701	FORWARD:          0	MERGED:      74366	TO_CACHE:     490335

STLB Hit, L1D data hit: 0
STLB Hit, L2C data hit: 0
STLB Hit, LLC data hit: 0
STLB Hit, LLC data miss: 0
STLB STLB hints to L2: 0
L1D TOTAL     ACCESS:   15121275  HIT:   14771685  MISS:     349590  HIT %:    97.6881  MISS %:    2.31191   MPKI: 6.9918
L1D LOAD      ACCESS:    7421778  HIT:    7301207  MISS:     120571  HIT %:    98.3754  MISS %:    1.62456   MPKI: 2.41142
L1D RFO       ACCESS:    7330691  HIT:    7175203  MISS:     155488  HIT %:    97.8789  MISS %:    2.12106   MPKI: 3.10976
L1D PREFETCH  ACCESS:     368806  HIT:     295275  MISS:      73531  HIT %:    80.0624  MISS %:    19.9376   MPKI: 1.47062
L1D PREFETCH  REQUESTED:     746832  ISSUED:     746829  USEFUL:      21916  USELESS:      51580
L1D USEFUL LOAD PREFETCHES:      21916 PREFETCH ISSUED TO LOWER LEVEL:      73709  ACCURACY: 29.7331
L1D TIMELY PREFETCHES:      21916 LATE PREFETCHES: 5569 DROPPED PREFETCHES: 0
L1D PREFETCHES SAME FILL-ORIGIN LEVEL: 73709 DIFFERENT FILL-ORIGIN LEVEL: 0
L1D AVERAGE MISS LATENCY: 18749.2 cycles
L1D RQ	ACCESS:   12009994	FORWARD:          0	MERGED:    4396154	TO_CACHE:    7438125
L1D WQ	ACCESS:    7811254	FORWARD:     176388	MERGED:     142615	TO_CACHE:    7668639
L1D PQ	ACCESS:     373751	FORWARD:          0	MERGED:          0	TO_CACHE:     373078

L1D UNIQUE REGIONS ACCESSED: 0
L1D REGIONS CONFLICTS: 0
L1D Cross Page Prefetch Requests: 0
L1D Same Page Prefetch Requests: 444822
L1D ROI Sum of L1D PQ occupancy: 4952275
L1D PREFETCHES PUSHED FROM L2C: 0
L1I TOTAL     ACCESS:    9924840  HIT:    9389725  MISS:     535115  HIT %:    94.6083  MISS %:    5.39167   MPKI: 10.7023
L1I LOAD      ACCESS:    9924840  HIT:    9389725  MISS:     535115  HIT %:    94.6083  MISS %:    5.39167   MPKI: 10.7023
L1I PREFETCH  REQUESTED:          0  ISSUED:          0  USEFUL:          0  USELESS:          0
L1I USEFUL LOAD PREFETCHES:          0 PREFETCH ISSUED TO LOWER LEVEL:          0  ACCURACY: -nan
L1I TIMELY PREFETCHES:          0 LATE PREFETCHES: 0 DROPPED PREFETCHES: 0
L1I PREFETCHES SAME FILL-ORIGIN LEVEL: 0 DIFFERENT FILL-ORIGIN LEVEL: 0
L1I AVERAGE MISS LATENCY: 23.4885 cycles
L1I RQ	ACCESS:   14768196	FORWARD:          0	MERGED:    4715901	TO_CACHE:   10052295

BTB TOTAL     ACCESS:    6766808  HIT:    6169221  MISS:     597587  HIT %:    91.1688  MISS %:    8.83115   MPKI: 11.9517
BTB BRANCH_DIRECT_JUMP	ACCESS:     494781  HIT:     477302  MISS:      17479
BTB BRANCH_INDIRECT	ACCESS:     114379  HIT:      50385  MISS:      63994
BTB BRANCH_CONDITIONAL	ACCESS:    3862756  HIT:    3810705  MISS:      52051
BTB BRANCH_DIRECT_CALL	ACCESS:     995377  HIT:     956807  MISS:      38570
BTB BRANCH_INDIRECT_CALL	ACCESS:     151743  HIT:     115162  MISS:      36581
BTB BRANCH_RETURN	ACCESS:    1147772  HIT:     758860  MISS:     388912
BTB BRANCH_OTHER ACCESS:          0  HIT:          0  MISS:          0

L2C TOTAL     ACCESS:    1138961  HIT:     867519  MISS:     271442  HIT %:    76.1676  MISS %:    23.8324   MPKI: 5.42884
L2C LOAD      ACCESS:     655685  HIT:     547293  MISS:     108392  HIT %:    83.4689  MISS %:    16.5311   MPKI: 2.16784
L2C DATA LOAD MPKI: 0.70382
L2C INSTRUCTION LOAD MPKI: 1.46402
L2C RFO       ACCESS:     155308  HIT:      40423  MISS:     114885  HIT %:    26.0276  MISS %:    73.9724   MPKI: 2.2977
L2C PREFETCH  ACCESS:     137000  HIT:      91077  MISS:      45923  HIT %:    66.4796  MISS %:    33.5204   MPKI: 0.91846
L2C DATA PREFETCH MPKI: 0.91846
L2C INSTRUCTION PREFETCH MPKI: 0
L2C WRITEBACK ACCESS:     189127  HIT:     187846  MISS:       1281  HIT %:    99.3227  MISS %:   0.677323   MPKI: 0.02562
L2C LOAD TRANSLATION ACCESS:       1841  HIT:        880  MISS:        961  HIT %:    47.8001  MISS %:    52.1999   MPKI: 0.01922
L2C PREFETCH  REQUESTED:      65468  ISSUED:      65468  USEFUL:      10087  USELESS:      35775
L2C USEFUL LOAD PREFETCHES:      10087 PREFETCH ISSUED TO LOWER LEVEL:      46213  ACCURACY: 21.8272
L2C TIMELY PREFETCHES:      10087 LATE PREFETCHES: 290 DROPPED PREFETCHES: 0
L2C PREFETCHES SAME FILL-ORIGIN LEVEL: 14706 DIFFERENT FILL-ORIGIN LEVEL: 0
L2C AVERAGE MISS LATENCY: 131.794 cycles
L2C RQ	ACCESS:     812837	FORWARD:          0	MERGED:          0	TO_CACHE:     812834
L2C WQ	ACCESS:     189127	FORWARD:          4	MERGED:          0	TO_CACHE:     189127
L2C PQ	ACCESS:     139177	FORWARD:          0	MERGED:       1297	TO_CACHE:     137879

L2C Instructions Evicting Data 47470
L2C Translations Evicting Data 666
L2C Data Evicting Data 147237
L2C Instructions Evicting Instructions 25417
L2C Translations Evicting Instructions 291
L2C Data Evicting Instructions 48096
L2C Instructions Evicting Translations 314
L2C Translations Evicting Translations 4
L2C Data Evicting Translations 666
L2C Dense regions hint from L2: 0
PSCL5 TOTAL     ACCESS:       1773  HIT:       1773  MISS:          0  HIT %:        100  MISS %:          0   MPKI: 0
PSCL5 LOAD TRANSLATION ACCESS:       1773  HIT:       1773  MISS:          0  HIT %:        100  MISS %:          0   MPKI: 0
PSCL5 PREFETCH  REQUESTED:          0  ISSUED:          0  USEFUL:          0  USELESS:          0
PSCL5 USEFUL LOAD PREFETCHES:          0 PREFETCH ISSUED TO LOWER LEVEL:          0  ACCURACY: -nan
PSCL5 TIMELY PREFETCHES:          0 LATE PREFETCHES: 0 DROPPED PREFETCHES: 0
PSCL5 PREFETCHES SAME FILL-ORIGIN LEVEL: 0 DIFFERENT FILL-ORIGIN LEVEL: 0

PSCL4 TOTAL     ACCESS:       1773  HIT:       1773  MISS:          0  HIT %:        100  MISS %:          0   MPKI: 0
PSCL4 LOAD TRANSLATION ACCESS:       1773  HIT:       1773  MISS:          0  HIT %:        100  MISS %:          0   MPKI: 0
PSCL4 PREFETCH  REQUESTED:          0  ISSUED:          0  USEFUL:          0  USELESS:          0
PSCL4 USEFUL LOAD PREFETCHES:          0 PREFETCH ISSUED TO LOWER LEVEL:          0  ACCURACY: -nan
PSCL4 TIMELY PREFETCHES:          0 LATE PREFETCHES: 0 DROPPED PREFETCHES: 0
PSCL4 PREFETCHES SAME FILL-ORIGIN LEVEL: 0 DIFFERENT FILL-ORIGIN LEVEL: 0

PSCL3 TOTAL     ACCESS:       1771  HIT:       1771  MISS:          0  HIT %:        100  MISS %:          0   MPKI: 0
PSCL3 LOAD TRANSLATION ACCESS:       1771  HIT:       1771  MISS:          0  HIT %:        100  MISS %:          0   MPKI: 0
PSCL3 PREFETCH  REQUESTED:          0  ISSUED:          0  USEFUL:          0  USELESS:          0
PSCL3 USEFUL LOAD PREFETCHES:          0 PREFETCH ISSUED TO LOWER LEVEL:          0  ACCURACY: -nan
PSCL3 TIMELY PREFETCHES:          0 LATE PREFETCHES: 0 DROPPED PREFETCHES: 0
PSCL3 PREFETCHES SAME FILL-ORIGIN LEVEL: 0 DIFFERENT FILL-ORIGIN LEVEL: 0

PSCL2 TOTAL     ACCESS:       1773  HIT:       1702  MISS:         71  HIT %:    95.9955  MISS %:    4.00451   MPKI: 0.00142
PSCL2 LOAD TRANSLATION ACCESS:       1773  HIT:       1702  MISS:         71  HIT %:    95.9955  MISS %:    4.00451   MPKI: 0.00142
PSCL2 PREFETCH  REQUESTED:          0  ISSUED:          0  USEFUL:          0  USELESS:          0
PSCL2 USEFUL LOAD PREFETCHES:          0 PREFETCH ISSUED TO LOWER LEVEL:          0  ACCURACY: -nan
PSCL2 TIMELY PREFETCHES:          0 LATE PREFETCHES: 0 DROPPED PREFETCHES: 0
PSCL2 PREFETCHES SAME FILL-ORIGIN LEVEL: 0 DIFFERENT FILL-ORIGIN LEVEL: 0

LLC TOTAL     ACCESS:     403888  HIT:     313769  MISS:      90119  HIT %:    77.6871  MISS %:    22.3129   MPKI: 1.80238
LLC LOAD      ACCESS:     108173  HIT:      85709  MISS:      22464  HIT %:    79.2333  MISS %:    20.7667   MPKI: 0.44928
LLC RFO       ACCESS:     114814  HIT:      59765  MISS:      55049  HIT %:    52.0538  MISS %:    47.9462   MPKI: 1.10098
LLC PREFETCH  ACCESS:      46213  HIT:      34275  MISS:      11938  HIT %:    74.1674  MISS %:    25.8326   MPKI: 0.23876
LLC WRITEBACK ACCESS:     133727  HIT:     133511  MISS:        216  HIT %:    99.8385  MISS %:   0.161523   MPKI: 0.00432
LLC LOAD TRANSLATION ACCESS:        961  HIT:        509  MISS:        452  HIT %:    52.9657  MISS %:    47.0343   MPKI: 0.00904
LLC PREFETCH  REQUESTED:          0  ISSUED:          0  USEFUL:       2884  USELESS:       9529
LLC USEFUL LOAD PREFETCHES:       2884 PREFETCH ISSUED TO LOWER LEVEL:      11938  ACCURACY: 24.1582
LLC TIMELY PREFETCHES:       2884 LATE PREFETCHES: 0 DROPPED PREFETCHES: 0
LLC PREFETCHES SAME FILL-ORIGIN LEVEL: 0 DIFFERENT FILL-ORIGIN LEVEL: 0
LLC AVERAGE MISS LATENCY: 307.023 cycles
LLC RQ	ACCESS:     223948	FORWARD:          0	MERGED:          0	TO_CACHE:     223948
LLC WQ	ACCESS:     133727	FORWARD:          0	MERGED:          0	TO_CACHE:     133727
LLC PQ	ACCESS:      46213	FORWARD:          0	MERGED:          0	TO_CACHE:      46213

LLC Dense regions hint to LLC: 0

RAW hits: 1564862
Loads Generated: 13574857
Loads sent to L1D: 12009994
Stores Generated: 7811247
Stores sent to L1D: 7811254
Major fault: 0 Minor fault: 2338
Allocated PAGES: 2338

stream: 
stream:times selected: 674944
stream:pref_filled: 52169
stream:pref_useful: 13950
stream:pref_late: 1149
stream:misses: 5883
stream:misses_by_poll: 0

CS: 
CS:times selected: 49591
CS:pref_filled: 16023
CS:pref_useful: 9969
CS:pref_late: 1092
CS:misses: 5576
CS:misses_by_poll: 9

CPLX: 
CPLX:times selected: 622826
CPLX:pref_filled: 21348
CPLX:pref_useful: 3330
CPLX:pref_late: 97
CPLX:misses: 29767
CPLX:misses_by_poll: 31

NL_L1: 
NL:times selected: 6363
NL:pref_filled: 620
NL:pref_useful: 206
NL:pref_late: 24
NL:misses: 340
NL:misses_by_poll: 0

total selections: 1353724
total_filled: 73531
total_useful: 21916
total_late: 2409
total_polluted: 40
total_misses_after_warmup: 136916
conflicts: 2430032
Degree Incremented Times: 0
Degree Decremented Times: 112777

L1 IP Table Write Accesses: 4568655
L1 IP Table Read Accesses: 2138623
L1 RST Write Accesses: 574338
L1 RST Read Accesses: 1148676
L1 CSPT Write Accesses: 574338
L1 CSPT Read Accesses: 1107984
L1 RR Filter Tag Write Accesses: 373754
L1 RR Filter Tag Read Accesses: 21767374
L1 IP Table Tag Write Accesses: 7438123
L1 IP Table Tag Read Accesses: 7438123
L1 RST Tag Write Accesses: 0
L1 RST Tag Read Accesses: 5309846
L1 RR Filter Write Accesses: 0
L1 RR Filter Read Accesses: 831299
test: 181494
L2 IP Table Read Accesses: 319584
L2 IP Table Write Accesses: 305967
L2 IP Table Tag Read Accesses: 193122
L2 IP Table Tag Write Accesses: 193122

DRAM Statistics
 CHANNEL 0
 RQ ROW_BUFFER_HIT:      32843  ROW_BUFFER_MISS:      57054
 DBUS_CONGESTED:      84751
 WQ ROW_BUFFER_HIT:      14357  ROW_BUFFER_MISS:      44908  FULL:          0

 AVG_CONGESTED_CYCLE: 35
 All warmup complete: 2
Channel 0 Bank busy for read cycles: 0
Channel 0 Bank busy for write cycles: 0
Channel 0
Rank 0
0banks busy for read cycles: 63404107
0banks busy for write cycles: 19716
1banks busy for read cycles: 4968220
1banks busy for write cycles: 2637279
2banks busy for read cycles: 1162993
2banks busy for write cycles: 932627
3banks busy for read cycles: 260423
3banks busy for write cycles: 413336
4banks busy for read cycles: 132352
4banks busy for write cycles: 262816
5banks busy for read cycles: 70137
5banks busy for write cycles: 201322
6banks busy for read cycles: 59331
6banks busy for write cycles: 175824
7banks busy for read cycles: 118292
7banks busy for write cycles: 201634
8banks busy for read cycles: 1005450
8banks busy for write cycles: 635293

CPU 0 Branch Prediction Accuracy: 95.2436% MPKI: 8.774 Average ROB Occupancy at Mispredict: 37.9759
Branch types
NOT_BRANCH: 40776380 81.5528%
BRANCH_DIRECT_JUMP: 494781 0.989562%
BRANCH_INDIRECT: 114379 0.228758%
BRANCH_CONDITIONAL: 6319235 12.6385%
BRANCH_DIRECT_CALL: 995377 1.99075%
BRANCH_INDIRECT_CALL: 151743 0.303486%
BRANCH_RETURN: 1147772 2.29554%
BRANCH_OTHER: 0 0%

@sumon_overall_L1D     21916      5569     51580     73531    746829    746832
@Sumon_Early_by_class_L1D     11353      7239      2772        20
@Sumon_Late_by_class_L1D      1053      1071        93        20

@Sumon_Early_by_cycle_L1D      4153      2344      1430       739       643      2944      2834      1463      1203      1574      1312      1277
@Sumon_Late_by_cycle_L1D      2029       239        10         2         0         0         0         0         0         0         0         0
@Sumon_Early_stream_L1D      2800      1210       807       464       461      1402       833       700       623       923       611       519
@Sumon_Early_CS_L1D       862       940       472       156       111      1256      1722       423       227       176       396       498
@Sumon_Early_CPLX_L1D       326       154       127       100        63       243       233       279       304       425       284       234
@Sumon_Late_stream_L1D       907       138         6         2         0         0         0         0         0         0         0         0
@Sumon_Late_CS_L1D       998        71         2         0         0         0         0         0         0         0         0         0
@Sumon_Late_CPLX_L1D        76        15         2         0         0         0         0         0         0         0         0         0
@sumon_overall_L2C     10087       290     35775     45923     65468     65468
@Sumon_Early_by_class_L2C      3019      1394      1238         0
@Sumon_Late_by_class_L2C         0         0         0         0

@Sumon_Early_by_cycle_L2C       396       196       249       137       100       408       252       281       226       286       444      7112
@Sumon_Late_by_cycle_L2C       190        98         2         0         0         0         0         0         0         0         0         0
@Sumon_Early_stream_L2C         0         0         0         0         0         0         0         0         4        20       109      2886
@Sumon_Early_CS_L2C         0         0         0         0         0         0         0         0         0         6        68      1320
@Sumon_Early_CPLX_L2C         0         0         0         0         0         0         0         0         0         9        62      1167
@Sumon_Late_stream_L2C         0         0         0         0         0         0         0         0         0         0         0         0
@Sumon_Late_CS_L2C         0         0         0         0         0         0         0         0         0         0         0         0
@Sumon_Late_CPLX_L2C         0         0         0         0         0         0         0         0         0         0         0         0
DRAM PAGES: 1048576
Allocated PAGES: 2338
