
*** ChampSim Multicore Out-of-Order Simulator ***

Warmup Instructions: 10000000
Simulation Instructions: 50000000
Number of CPUs: 1
LLC sets: 2048
LLC ways: 16
Off-chip DRAM Size: 4096 MB Channels: 1 Width: 64-bit Data Rate: 800 MT/s
CPU 0 runs traces/clientserver/client_004.champsimtrace.xz
.xz
CPU 0 Bimodal branch predictor
BTB has LRU replacement policy
ITLB has LRU replacement policy
DTLB has LRU replacement policy
STLB has LRU replacement policy
L1I has LRU replacement policy
IP Table Entries: 256
L1D has LRU replacement policy
IP_Table L2 entries: 256
L2C has LRU replacement policy
LLC has LRU replacement policy
Heartbeat CPU 0 instructions: 10000000 cycles: 3024244 heartbeat IPC: 3.30661 cumulative IPC: 3.30661 (Simulation time: 0 hr 20 min 20 sec) 

Warmup complete CPU 0 instructions: 10000004 cycles: 3024245 (Simulation time: 0 hr 20 min 20 sec) 

Heartbeat CPU 0 instructions: 20000003 cycles: 20515668 heartbeat IPC: 0.571709 cumulative IPC: 0.571709 (Simulation time: 0 hr 37 min 10 sec) 
Heartbeat CPU 0 instructions: 30000002 cycles: 41457961 heartbeat IPC: 0.477503 cumulative IPC: 0.520376 (Simulation time: 0 hr 55 min 0 sec) 
Heartbeat CPU 0 instructions: 40000000 cycles: 62149124 heartbeat IPC: 0.483298 cumulative IPC: 0.507401 (Simulation time: 1 hr 13 min 5 sec) 
Heartbeat CPU 0 instructions: 50000001 cycles: 80060350 heartbeat IPC: 0.558309 cumulative IPC: 0.519237 (Simulation time: 1 hr 31 min 0 sec) 
Heartbeat CPU 0 instructions: 60000000 cycles: 98556644 heartbeat IPC: 0.540649 cumulative IPC: 0.523383 (Simulation time: 1 hr 45 min 46 sec) 
Finished CPU 0 instructions: 50000000 cycles: 95532400 cumulative IPC: 0.523383 (Simulation time: 1 hr 45 min 46 sec) 

ChampSim completed all CPUs

Region of Interest Statistics

CPU 0 cumulative IPC: 0.523383 instructions: 50000000 cycles: 95532400
ITLB TOTAL     ACCESS:    8479612  HIT:    8393287  MISS:      86325  HIT %:     98.982  MISS %:    1.01803   MPKI: 1.7265
ITLB LOAD TRANSLATION ACCESS:    8479612  HIT:    8393287  MISS:      86325  HIT %:     98.982  MISS %:    1.01803   MPKI: 1.7265
ITLB PREFETCH  REQUESTED:          0  ISSUED:          0  USEFUL:          0  USELESS:          0
ITLB USEFUL LOAD PREFETCHES:          0 PREFETCH ISSUED TO LOWER LEVEL:          0  ACCURACY: -nan
ITLB TIMELY PREFETCHES:          0 LATE PREFETCHES: 0 DROPPED PREFETCHES: 0
ITLB PREFETCHES SAME FILL-ORIGIN LEVEL: 0 DIFFERENT FILL-ORIGIN LEVEL: 0
ITLB AVERAGE MISS LATENCY: 12.2663 cycles
ITLB RQ	ACCESS:    9779715	FORWARD:          0	MERGED:    1279841	TO_CACHE:    8499874

DTLB TOTAL     ACCESS:   12134967  HIT:   11944878  MISS:     190089  HIT %:    98.4335  MISS %:    1.56646   MPKI: 3.80178
DTLB LOAD TRANSLATION ACCESS:   12134967  HIT:   11944878  MISS:     190089  HIT %:    98.4335  MISS %:    1.56646   MPKI: 3.80178
DTLB PREFETCH  REQUESTED:          0  ISSUED:          0  USEFUL:          0  USELESS:          0
DTLB USEFUL LOAD PREFETCHES:          0 PREFETCH ISSUED TO LOWER LEVEL:          0  ACCURACY: -nan
DTLB TIMELY PREFETCHES:          0 LATE PREFETCHES: 0 DROPPED PREFETCHES: 0
DTLB PREFETCHES SAME FILL-ORIGIN LEVEL: 0 DIFFERENT FILL-ORIGIN LEVEL: 0
DTLB AVERAGE MISS LATENCY: 12.0146 cycles
DTLB RQ	ACCESS:   14564076	FORWARD:          0	MERGED:    2419650	TO_CACHE:   12144426

STLB TOTAL     ACCESS:     899572  HIT:     890339  MISS:       9233  HIT %:    98.9736  MISS %:    1.02638   MPKI: 0.18466
STLB LOAD TRANSLATION ACCESS:     276414  HIT:     267181  MISS:       9233  HIT %:    96.6597  MISS %:    3.34028   MPKI: 0.18466
STLB TRANSLATION FROM L1D PREFETCHER ACCESS:     623158  HIT:     623158  MISS:          0  HIT %:        100  MISS %:          0   MPKI: 0
STLB PREFETCH  REQUESTED:          0  ISSUED:          0  USEFUL:          0  USELESS:          0
STLB USEFUL LOAD PREFETCHES:          0 PREFETCH ISSUED TO LOWER LEVEL:          0  ACCURACY: -nan
STLB TIMELY PREFETCHES:          0 LATE PREFETCHES: 0 DROPPED PREFETCHES: 0
STLB PREFETCHES SAME FILL-ORIGIN LEVEL: 0 DIFFERENT FILL-ORIGIN LEVEL: 0
STLB AVERAGE MISS LATENCY: 91.8754 cycles
STLB RQ	ACCESS:    1077511	FORWARD:          0	MERGED:     177939	TO_CACHE:     899572

STLB Hit, L1D data hit: 0
STLB Hit, L2C data hit: 0
STLB Hit, LLC data hit: 0
STLB Hit, LLC data miss: 0
STLB STLB hints to L2: 0
L1D TOTAL     ACCESS:   15134568  HIT:   14556880  MISS:     577688  HIT %:     96.183  MISS %:    3.81701   MPKI: 11.5538
L1D LOAD      ACCESS:    9141492  HIT:    8842290  MISS:     299202  HIT %:     96.727  MISS %:    3.27301   MPKI: 5.98404
L1D RFO       ACCESS:    5206910  HIT:    5107583  MISS:      99327  HIT %:    98.0924  MISS %:     1.9076   MPKI: 1.98654
L1D PREFETCH  ACCESS:     786166  HIT:     607007  MISS:     179159  HIT %:     77.211  MISS %:     22.789   MPKI: 3.58318
L1D PREFETCH  REQUESTED:    1602637  ISSUED:    1602624  USEFUL:      66759  USELESS:     112260
L1D USEFUL LOAD PREFETCHES:      66759 PREFETCH ISSUED TO LOWER LEVEL:     179575  ACCURACY: 37.1761
L1D TIMELY PREFETCHES:      66759 LATE PREFETCHES: 6155 DROPPED PREFETCHES: 0
L1D PREFETCHES SAME FILL-ORIGIN LEVEL: 179575 DIFFERENT FILL-ORIGIN LEVEL: 0
L1D AVERAGE MISS LATENCY: 43065 cycles
L1D RQ	ACCESS:   12712954	FORWARD:          0	MERGED:    3432917	TO_CACHE:    9167921
L1D WQ	ACCESS:    5608672	FORWARD:     112546	MERGED:     212517	TO_CACHE:    5396155
L1D PQ	ACCESS:     801527	FORWARD:          0	MERGED:          0	TO_CACHE:     801097

L1D UNIQUE REGIONS ACCESSED: 0
L1D REGIONS CONFLICTS: 0
L1D Cross Page Prefetch Requests: 0
L1D Same Page Prefetch Requests: 892561
L1D ROI Sum of L1D PQ occupancy: 10431287
L1D PREFETCHES PUSHED FROM L2C: 0
L1I TOTAL     ACCESS:    9669248  HIT:    9157153  MISS:     512095  HIT %:    94.7039  MISS %:    5.29612   MPKI: 10.2419
L1I LOAD      ACCESS:    9669248  HIT:    9157153  MISS:     512095  HIT %:    94.7039  MISS %:    5.29612   MPKI: 10.2419
L1I PREFETCH  REQUESTED:          0  ISSUED:          0  USEFUL:          0  USELESS:          0
L1I USEFUL LOAD PREFETCHES:          0 PREFETCH ISSUED TO LOWER LEVEL:          0  ACCURACY: -nan
L1I TIMELY PREFETCHES:          0 LATE PREFETCHES: 0 DROPPED PREFETCHES: 0
L1I PREFETCHES SAME FILL-ORIGIN LEVEL: 0 DIFFERENT FILL-ORIGIN LEVEL: 0
L1I AVERAGE MISS LATENCY: 36.1481 cycles
L1I RQ	ACCESS:   14339815	FORWARD:          0	MERGED:    4560100	TO_CACHE:    9779715

BTB TOTAL     ACCESS:    7103805  HIT:    6262902  MISS:     840903  HIT %:    88.1626  MISS %:    11.8374   MPKI: 16.8181
BTB BRANCH_DIRECT_JUMP	ACCESS:     684327  HIT:     652259  MISS:      32068
BTB BRANCH_INDIRECT	ACCESS:     441278  HIT:     206647  MISS:     234631
BTB BRANCH_CONDITIONAL	ACCESS:    4304334  HIT:    4222727  MISS:      81607
BTB BRANCH_DIRECT_CALL	ACCESS:     559763  HIT:     506973  MISS:      52790
BTB BRANCH_INDIRECT_CALL	ACCESS:     263528  HIT:     188816  MISS:      74712
BTB BRANCH_RETURN	ACCESS:     850575  HIT:     485480  MISS:     365095
BTB BRANCH_OTHER ACCESS:          0  HIT:          0  MISS:          0

L2C TOTAL     ACCESS:    1428887  HIT:    1075355  MISS:     353532  HIT %:    75.2582  MISS %:    24.7418   MPKI: 7.07064
L2C LOAD      ACCESS:     811278  HIT:     599013  MISS:     212265  HIT %:    73.8357  MISS %:    26.1643   MPKI: 4.2453
L2C DATA LOAD MPKI: 1.25948
L2C INSTRUCTION LOAD MPKI: 2.98582
L2C RFO       ACCESS:      98905  HIT:      38567  MISS:      60338  HIT %:     38.994  MISS %:     61.006   MPKI: 1.20676
L2C PREFETCH  ACCESS:     338619  HIT:     263317  MISS:      75302  HIT %:     77.762  MISS %:     22.238   MPKI: 1.50604
L2C DATA PREFETCH MPKI: 1.50604
L2C INSTRUCTION PREFETCH MPKI: 0
L2C WRITEBACK ACCESS:     170252  HIT:     169533  MISS:        719  HIT %:    99.5777  MISS %:   0.422315   MPKI: 0.01438
L2C LOAD TRANSLATION ACCESS:       9833  HIT:       4925  MISS:       4908  HIT %:    50.0864  MISS %:    49.9136   MPKI: 0.09816
L2C PREFETCH  REQUESTED:     166671  ISSUED:     166671  USEFUL:      18729  USELESS:      57419
L2C USEFUL LOAD PREFETCHES:      18729 PREFETCH ISSUED TO LOWER LEVEL:      76421  ACCURACY: 24.5077
L2C TIMELY PREFETCHES:      18729 LATE PREFETCHES: 1119 DROPPED PREFETCHES: 0
L2C PREFETCHES SAME FILL-ORIGIN LEVEL: 38197 DIFFERENT FILL-ORIGIN LEVEL: 0
L2C AVERAGE MISS LATENCY: 105.97 cycles
L2C RQ	ACCESS:     920040	FORWARD:          0	MERGED:          0	TO_CACHE:     920016
L2C WQ	ACCESS:     170252	FORWARD:         28	MERGED:          0	TO_CACHE:     170252
L2C PQ	ACCESS:     346246	FORWARD:          0	MERGED:       3356	TO_CACHE:     342886

L2C Instructions Evicting Data 81247
L2C Translations Evicting Data 2858
L2C Data Evicting Data 112580
L2C Instructions Evicting Instructions 65973
L2C Translations Evicting Instructions 1959
L2C Data Evicting Instructions 83143
L2C Instructions Evicting Translations 2071
L2C Translations Evicting Translations 91
L2C Data Evicting Translations 2891
L2C Dense regions hint from L2: 0
PSCL5 TOTAL     ACCESS:       9233  HIT:       9233  MISS:          0  HIT %:        100  MISS %:          0   MPKI: 0
PSCL5 LOAD TRANSLATION ACCESS:       9233  HIT:       9233  MISS:          0  HIT %:        100  MISS %:          0   MPKI: 0
PSCL5 PREFETCH  REQUESTED:          0  ISSUED:          0  USEFUL:          0  USELESS:          0
PSCL5 USEFUL LOAD PREFETCHES:          0 PREFETCH ISSUED TO LOWER LEVEL:          0  ACCURACY: -nan
PSCL5 TIMELY PREFETCHES:          0 LATE PREFETCHES: 0 DROPPED PREFETCHES: 0
PSCL5 PREFETCHES SAME FILL-ORIGIN LEVEL: 0 DIFFERENT FILL-ORIGIN LEVEL: 0

PSCL4 TOTAL     ACCESS:       7454  HIT:       7441  MISS:         13  HIT %:    99.8256  MISS %:   0.174403   MPKI: 0.00026
PSCL4 LOAD TRANSLATION ACCESS:       7454  HIT:       7441  MISS:         13  HIT %:    99.8256  MISS %:   0.174403   MPKI: 0.00026
PSCL4 PREFETCH  REQUESTED:          0  ISSUED:          0  USEFUL:          0  USELESS:          0
PSCL4 USEFUL LOAD PREFETCHES:          0 PREFETCH ISSUED TO LOWER LEVEL:          0  ACCURACY: -nan
PSCL4 TIMELY PREFETCHES:          0 LATE PREFETCHES: 0 DROPPED PREFETCHES: 0
PSCL4 PREFETCHES SAME FILL-ORIGIN LEVEL: 0 DIFFERENT FILL-ORIGIN LEVEL: 0

PSCL3 TOTAL     ACCESS:       9002  HIT:       8956  MISS:         46  HIT %:     99.489  MISS %:   0.510998   MPKI: 0.00092
PSCL3 LOAD TRANSLATION ACCESS:       9002  HIT:       8956  MISS:         46  HIT %:     99.489  MISS %:   0.510998   MPKI: 0.00092
PSCL3 PREFETCH  REQUESTED:          0  ISSUED:          0  USEFUL:          0  USELESS:          0
PSCL3 USEFUL LOAD PREFETCHES:          0 PREFETCH ISSUED TO LOWER LEVEL:          0  ACCURACY: -nan
PSCL3 TIMELY PREFETCHES:          0 LATE PREFETCHES: 0 DROPPED PREFETCHES: 0
PSCL3 PREFETCHES SAME FILL-ORIGIN LEVEL: 0 DIFFERENT FILL-ORIGIN LEVEL: 0

PSCL2 TOTAL     ACCESS:       9233  HIT:       8686  MISS:        547  HIT %:    94.0756  MISS %:     5.9244   MPKI: 0.01094
PSCL2 LOAD TRANSLATION ACCESS:       9233  HIT:       8686  MISS:        547  HIT %:    94.0756  MISS %:     5.9244   MPKI: 0.01094
PSCL2 PREFETCH  REQUESTED:          0  ISSUED:          0  USEFUL:          0  USELESS:          0
PSCL2 USEFUL LOAD PREFETCHES:          0 PREFETCH ISSUED TO LOWER LEVEL:          0  ACCURACY: -nan
PSCL2 TIMELY PREFETCHES:          0 LATE PREFETCHES: 0 DROPPED PREFETCHES: 0
PSCL2 PREFETCHES SAME FILL-ORIGIN LEVEL: 0 DIFFERENT FILL-ORIGIN LEVEL: 0

LLC TOTAL     ACCESS:     430970  HIT:     298396  MISS:     132574  HIT %:    69.2382  MISS %:    30.7618   MPKI: 2.65148
LLC LOAD      ACCESS:     211225  HIT:     145292  MISS:      65933  HIT %:    68.7854  MISS %:    31.2146   MPKI: 1.31866
LLC RFO       ACCESS:      60259  HIT:      27376  MISS:      32883  HIT %:    45.4306  MISS %:    54.5694   MPKI: 0.65766
LLC PREFETCH  ACCESS:      76421  HIT:      44399  MISS:      32022  HIT %:    58.0979  MISS %:    41.9021   MPKI: 0.64044
LLC WRITEBACK ACCESS:      78157  HIT:      78085  MISS:         72  HIT %:    99.9079  MISS %:  0.0921223   MPKI: 0.00144
LLC LOAD TRANSLATION ACCESS:       4908  HIT:       3244  MISS:       1664  HIT %:    66.0962  MISS %:    33.9038   MPKI: 0.03328
LLC PREFETCH  REQUESTED:          0  ISSUED:          0  USEFUL:       4238  USELESS:      29963
LLC USEFUL LOAD PREFETCHES:       4238 PREFETCH ISSUED TO LOWER LEVEL:      32022  ACCURACY: 13.2347
LLC TIMELY PREFETCHES:       4238 LATE PREFETCHES: 0 DROPPED PREFETCHES: 0
LLC PREFETCHES SAME FILL-ORIGIN LEVEL: 0 DIFFERENT FILL-ORIGIN LEVEL: 0
LLC AVERAGE MISS LATENCY: 203.081 cycles
LLC RQ	ACCESS:     276392	FORWARD:          0	MERGED:          0	TO_CACHE:     276392
LLC WQ	ACCESS:      78158	FORWARD:          0	MERGED:          0	TO_CACHE:      78158
LLC PQ	ACCESS:      76421	FORWARD:          0	MERGED:          0	TO_CACHE:      76421

LLC Dense regions hint to LLC: 0

RAW hits: 877118
Loads Generated: 13590072
Loads sent to L1D: 12712954
Stores Generated: 5608673
Stores sent to L1D: 5608672
Major fault: 0 Minor fault: 3859
Allocated PAGES: 3859

stream: 
stream:times selected: 1390511
stream:pref_filled: 130527
stream:pref_useful: 46734
stream:pref_late: 4013
stream:misses: 15719
stream:misses_by_poll: 0

CS: 
CS:times selected: 80076
CS:pref_filled: 16148
CS:pref_useful: 11467
CS:pref_late: 625
CS:misses: 2568
CS:misses_by_poll: 8

CPLX: 
CPLX:times selected: 1301263
CPLX:pref_filled: 51731
CPLX:pref_useful: 13150
CPLX:pref_late: 581
CPLX:misses: 73432
CPLX:misses_by_poll: 99

NL_L1: 
NL:times selected: 13073
NL:pref_filled: 1373
NL:pref_useful: 576
NL:pref_late: 38
NL:misses: 1029
NL:misses_by_poll: 0

total selections: 2784923
total_filled: 179159
total_useful: 66759
total_late: 5325
total_polluted: 107
total_misses_after_warmup: 325630
conflicts: 2071941
Degree Incremented Times: 0
Degree Decremented Times: 90135

L1 IP Table Write Accesses: 6429950
L1 IP Table Read Accesses: 4358009
L1 RST Write Accesses: 1219894
L1 RST Read Accesses: 2439788
L1 CSPT Write Accesses: 1219894
L1 CSPT Read Accesses: 2359820
L1 RR Filter Tag Write Accesses: 801540
L1 RR Filter Tag Read Accesses: 45666348
L1 IP Table Tag Write Accesses: 9167920
L1 IP Table Tag Read Accesses: 9167920
L1 RST Tag Write Accesses: 0
L1 RST Tag Read Accesses: 11095667
L1 RR Filter Write Accesses: 0
L1 RR Filter Read Accesses: 1702480
test: 432720
L2 IP Table Read Accesses: 781902
L2 IP Table Write Accesses: 746360
L2 IP Table Tag Read Accesses: 475534
L2 IP Table Tag Write Accesses: 475534

DRAM Statistics
 CHANNEL 0
 RQ ROW_BUFFER_HIT:      34264  ROW_BUFFER_MISS:      98236
 DBUS_CONGESTED:      65833
 WQ ROW_BUFFER_HIT:      10401  ROW_BUFFER_MISS:      25649  FULL:          0

 AVG_CONGESTED_CYCLE: 31
 All warmup complete: 2
Channel 0 Bank busy for read cycles: 0
Channel 0 Bank busy for write cycles: 0
Channel 0
Rank 0
0banks busy for read cycles: 77973914
0banks busy for write cycles: 17234
1banks busy for read cycles: 8746967
1banks busy for write cycles: 2892260
2banks busy for read cycles: 2453000
2banks busy for write cycles: 995140
3banks busy for read cycles: 619887
3banks busy for write cycles: 413588
4banks busy for read cycles: 214564
4banks busy for write cycles: 215454
5banks busy for read cycles: 93041
5banks busy for write cycles: 124946
6banks busy for read cycles: 59804
6banks busy for write cycles: 84782
7banks busy for read cycles: 61488
7banks busy for write cycles: 78061
8banks busy for read cycles: 330520
8banks busy for write cycles: 157751

CPU 0 Branch Prediction Accuracy: 92.6971% MPKI: 13.3583 Average ROB Occupancy at Mispredict: 32.8345
Branch types
NOT_BRANCH: 40853744 81.7075%
BRANCH_DIRECT_JUMP: 684327 1.36865%
BRANCH_INDIRECT: 441278 0.882556%
BRANCH_CONDITIONAL: 6346444 12.6929%
BRANCH_DIRECT_CALL: 559763 1.11953%
BRANCH_INDIRECT_CALL: 263528 0.527056%
BRANCH_RETURN: 850575 1.70115%
BRANCH_OTHER: 0 0%

@sumon_overall_L1D     66759      6155    112260    179159   1602624   1602637
@Sumon_Early_by_class_L1D     42050     10685     12206        38
@Sumon_Late_by_class_L1D      3635       621       565        38

@Sumon_Early_by_cycle_L1D     16430      7384      6579      3739      2334      6687      4686      4670      3973      5447      2891      1939
@Sumon_Late_by_cycle_L1D      4453       375        72        12         7         4         1         0         0         0         0         0
@Sumon_Early_stream_L1D     11449      4364      3663      2198      1329      4039      3097      3033      2398      3404      1814      1262
@Sumon_Early_CS_L1D      2185      1876      1914       864       523      1263       550       459       407       367       166       111
@Sumon_Early_CPLX_L1D      2393       940       829       574       437      1147       897      1060      1057      1531       828       513
@Sumon_Late_stream_L1D      3322       253        51         8         1         0         0         0         0         0         0         0
@Sumon_Late_CS_L1D       511        80        15         4         6         4         1         0         0         0         0         0
@Sumon_Late_CPLX_L1D       535        27         3         0         0         0         0         0         0         0         0         0
@sumon_overall_L2C     18729      1119     57419     75302    166671    166671
@Sumon_Early_by_class_L2C      3937       706      1746         0
@Sumon_Late_by_class_L2C         0         0         0         0

@Sumon_Early_by_cycle_L2C      1617       990       828       525       409      1102       728       684       641       905      1049      9251
@Sumon_Late_by_cycle_L2C       807       291        21         0         0         0         0         0         0         0         0         0
@Sumon_Early_stream_L2C         0         0         0         0         0         0         0         1         3        68       266      3599
@Sumon_Early_CS_L2C         0         0         0         0         0         0         0         2         0         7        22       675
@Sumon_Early_CPLX_L2C         0         0         0         0         0         0         0         0         2        32       101      1611
@Sumon_Late_stream_L2C         0         0         0         0         0         0         0         0         0         0         0         0
@Sumon_Late_CS_L2C         0         0         0         0         0         0         0         0         0         0         0         0
@Sumon_Late_CPLX_L2C         0         0         0         0         0         0         0         0         0         0         0         0
DRAM PAGES: 1048576
Allocated PAGES: 3859
