
*** ChampSim Multicore Out-of-Order Simulator ***

Warmup Instructions: 10000000
Simulation Instructions: 50000000
Number of CPUs: 1
LLC sets: 2048
LLC ways: 16
Off-chip DRAM Size: 4096 MB Channels: 1 Width: 64-bit Data Rate: 800 MT/s
CPU 0 runs traces/clientserver/client_008.champsimtrace.xz
.xz
CPU 0 Bimodal branch predictor
BTB has LRU replacement policy
ITLB has LRU replacement policy
DTLB has LRU replacement policy
STLB has LRU replacement policy
L1I has LRU replacement policy
IP Table Entries: 256
L1D has LRU replacement policy
IP_Table L2 entries: 256
L2C has LRU replacement policy
LLC has LRU replacement policy
Heartbeat CPU 0 instructions: 10000001 cycles: 3017386 heartbeat IPC: 3.31413 cumulative IPC: 3.31413 (Simulation time: 0 hr 21 min 6 sec) 

Warmup complete CPU 0 instructions: 10000001 cycles: 3017386 (Simulation time: 0 hr 21 min 6 sec) 

Heartbeat CPU 0 instructions: 20000001 cycles: 23735899 heartbeat IPC: 0.48266 cumulative IPC: 0.48266 (Simulation time: 0 hr 40 min 2 sec) 
Heartbeat CPU 0 instructions: 30000003 cycles: 44255970 heartbeat IPC: 0.487328 cumulative IPC: 0.484983 (Simulation time: 0 hr 58 min 23 sec) 
Heartbeat CPU 0 instructions: 40000001 cycles: 64317417 heartbeat IPC: 0.498468 cumulative IPC: 0.489396 (Simulation time: 1 hr 17 min 3 sec) 
Heartbeat CPU 0 instructions: 50000003 cycles: 84928482 heartbeat IPC: 0.485176 cumulative IPC: 0.488334 (Simulation time: 1 hr 35 min 27 sec) 
Heartbeat CPU 0 instructions: 60000003 cycles: 104529630 heartbeat IPC: 0.510174 cumulative IPC: 0.492551 (Simulation time: 1 hr 47 min 55 sec) 
Finished CPU 0 instructions: 50000002 cycles: 101512244 cumulative IPC: 0.492551 (Simulation time: 1 hr 47 min 55 sec) 

ChampSim completed all CPUs

Region of Interest Statistics

CPU 0 cumulative IPC: 0.492551 instructions: 50000002 cycles: 101512244
ITLB TOTAL     ACCESS:    8166454  HIT:    7844605  MISS:     321849  HIT %:    96.0589  MISS %:    3.94111   MPKI: 6.43698
ITLB LOAD TRANSLATION ACCESS:    8166454  HIT:    7844605  MISS:     321849  HIT %:    96.0589  MISS %:    3.94111   MPKI: 6.43698
ITLB PREFETCH  REQUESTED:          0  ISSUED:          0  USEFUL:          0  USELESS:          0
ITLB USEFUL LOAD PREFETCHES:          0 PREFETCH ISSUED TO LOWER LEVEL:          0  ACCURACY: -nan
ITLB TIMELY PREFETCHES:          0 LATE PREFETCHES: 0 DROPPED PREFETCHES: 0
ITLB PREFETCHES SAME FILL-ORIGIN LEVEL: 0 DIFFERENT FILL-ORIGIN LEVEL: 0
ITLB AVERAGE MISS LATENCY: 9.68156 cycles
ITLB RQ	ACCESS:    9598333	FORWARD:          0	MERGED:    1337621	TO_CACHE:    8260712

DTLB TOTAL     ACCESS:   12144943  HIT:   11105608  MISS:    1039335  HIT %:    91.4422  MISS %:    8.55776   MPKI: 20.7867
DTLB LOAD TRANSLATION ACCESS:   12144943  HIT:   11105608  MISS:    1039335  HIT %:    91.4422  MISS %:    8.55776   MPKI: 20.7867
DTLB PREFETCH  REQUESTED:          0  ISSUED:          0  USEFUL:          0  USELESS:          0
DTLB USEFUL LOAD PREFETCHES:          0 PREFETCH ISSUED TO LOWER LEVEL:          0  ACCURACY: -nan
DTLB TIMELY PREFETCHES:          0 LATE PREFETCHES: 0 DROPPED PREFETCHES: 0
DTLB PREFETCHES SAME FILL-ORIGIN LEVEL: 0 DIFFERENT FILL-ORIGIN LEVEL: 0
DTLB AVERAGE MISS LATENCY: 9.628 cycles
DTLB RQ	ACCESS:   13795883	FORWARD:          0	MERGED:    1617765	TO_CACHE:   12178118

STLB TOTAL     ACCESS:    2014831  HIT:    2004167  MISS:      10664  HIT %:    99.4707  MISS %:   0.529275   MPKI: 0.21328
STLB LOAD TRANSLATION ACCESS:    1361183  HIT:    1350519  MISS:      10664  HIT %:    99.2166  MISS %:   0.783436   MPKI: 0.21328
STLB TRANSLATION FROM L1D PREFETCHER ACCESS:     653648  HIT:     653648  MISS:          0  HIT %:        100  MISS %:          0   MPKI: 0
STLB PREFETCH  REQUESTED:          0  ISSUED:          0  USEFUL:          0  USELESS:          0
STLB USEFUL LOAD PREFETCHES:          0 PREFETCH ISSUED TO LOWER LEVEL:          0  ACCURACY: -nan
STLB TIMELY PREFETCHES:          0 LATE PREFETCHES: 0 DROPPED PREFETCHES: 0
STLB PREFETCHES SAME FILL-ORIGIN LEVEL: 0 DIFFERENT FILL-ORIGIN LEVEL: 0
STLB AVERAGE MISS LATENCY: 78.8175 cycles
STLB RQ	ACCESS:    2164766	FORWARD:          0	MERGED:     149935	TO_CACHE:    2014831

STLB Hit, L1D data hit: 0
STLB Hit, L2C data hit: 0
STLB Hit, LLC data hit: 0
STLB Hit, LLC data miss: 0
STLB STLB hints to L2: 0
L1D TOTAL     ACCESS:   14346830  HIT:   12881273  MISS:    1465557  HIT %:    89.7848  MISS %:    10.2152   MPKI: 29.3111
L1D LOAD      ACCESS:   10585641  HIT:    9498631  MISS:    1087010  HIT %:    89.7313  MISS %:    10.2687   MPKI: 21.7402
L1D RFO       ACCESS:    2974602  HIT:    2915009  MISS:      59593  HIT %:    97.9966  MISS %:    2.00339   MPKI: 1.19186
L1D PREFETCH  ACCESS:     786587  HIT:     467633  MISS:     318954  HIT %:    59.4509  MISS %:    40.5491   MPKI: 6.37908
L1D PREFETCH  REQUESTED:    1607211  ISSUED:    1607199  USEFUL:      43102  USELESS:     275873
L1D USEFUL LOAD PREFETCHES:      43102 PREFETCH ISSUED TO LOWER LEVEL:     319040  ACCURACY: 13.5099
L1D TIMELY PREFETCHES:      43102 LATE PREFETCHES: 12015 DROPPED PREFETCHES: 0
L1D PREFETCHES SAME FILL-ORIGIN LEVEL: 319040 DIFFERENT FILL-ORIGIN LEVEL: 0
L1D AVERAGE MISS LATENCY: 2939.32 cycles
L1D RQ	ACCESS:   15220633	FORWARD:          0	MERGED:    4415668	TO_CACHE:   10671093
L1D WQ	ACCESS:    3175977	FORWARD:     133905	MERGED:      51187	TO_CACHE:    3124790
L1D PQ	ACCESS:     803616	FORWARD:          0	MERGED:          0	TO_CACHE:     803583

L1D UNIQUE REGIONS ACCESSED: 0
L1D REGIONS CONFLICTS: 0
L1D Cross Page Prefetch Requests: 0
L1D Same Page Prefetch Requests: 962865
L1D ROI Sum of L1D PQ occupancy: 10464061
L1D PREFETCHES PUSHED FROM L2C: 0
L1I TOTAL     ACCESS:    9212580  HIT:    7673264  MISS:    1539316  HIT %:    83.2912  MISS %:    16.7088   MPKI: 30.7863
L1I LOAD      ACCESS:    9212580  HIT:    7673264  MISS:    1539316  HIT %:    83.2912  MISS %:    16.7088   MPKI: 30.7863
L1I PREFETCH  REQUESTED:          0  ISSUED:          0  USEFUL:          0  USELESS:          0
L1I USEFUL LOAD PREFETCHES:          0 PREFETCH ISSUED TO LOWER LEVEL:          0  ACCURACY: -nan
L1I TIMELY PREFETCHES:          0 LATE PREFETCHES: 0 DROPPED PREFETCHES: 0
L1I PREFETCHES SAME FILL-ORIGIN LEVEL: 0 DIFFERENT FILL-ORIGIN LEVEL: 0
L1I AVERAGE MISS LATENCY: 18.7469 cycles
L1I RQ	ACCESS:   14243429	FORWARD:          0	MERGED:    4645096	TO_CACHE:    9598333

BTB TOTAL     ACCESS:    6931541  HIT:    5917368  MISS:    1014173  HIT %:    85.3687  MISS %:    14.6313   MPKI: 20.2835
BTB BRANCH_DIRECT_JUMP	ACCESS:     559530  HIT:     536330  MISS:      23200
BTB BRANCH_INDIRECT	ACCESS:     465173  HIT:     328917  MISS:     136256
BTB BRANCH_CONDITIONAL	ACCESS:    3922405  HIT:    3818065  MISS:     104340
BTB BRANCH_DIRECT_CALL	ACCESS:     312096  HIT:     299015  MISS:      13081
BTB BRANCH_INDIRECT_CALL	ACCESS:     680109  HIT:     575755  MISS:     104354
BTB BRANCH_RETURN	ACCESS:     992228  HIT:     359286  MISS:     632942
BTB BRANCH_OTHER ACCESS:          0  HIT:          0  MISS:          0

L2C TOTAL     ACCESS:    3957749  HIT:    3477814  MISS:     479935  HIT %:    87.8735  MISS %:    12.1265   MPKI: 9.5987
L2C LOAD      ACCESS:    2626319  HIT:    2361651  MISS:     264668  HIT %:    89.9225  MISS %:    10.0775   MPKI: 5.29336
L2C DATA LOAD MPKI: 2.13344
L2C INSTRUCTION LOAD MPKI: 3.15992
L2C RFO       ACCESS:      59496  HIT:      28093  MISS:      31403  HIT %:    47.2183  MISS %:    52.7817   MPKI: 0.62806
L2C PREFETCH  ACCESS:    1169815  HIT:     992155  MISS:     177660  HIT %:     84.813  MISS %:     15.187   MPKI: 3.5532
L2C DATA PREFETCH MPKI: 3.5532
L2C INSTRUCTION PREFETCH MPKI: 0
L2C WRITEBACK ACCESS:      90830  HIT:      89938  MISS:        892  HIT %:    99.0179  MISS %:   0.982054   MPKI: 0.01784
L2C LOAD TRANSLATION ACCESS:      11289  HIT:       5977  MISS:       5312  HIT %:    52.9453  MISS %:    47.0547   MPKI: 0.10624
L2C PREFETCH  REQUESTED:     869416  ISSUED:     869416  USEFUL:      42859  USELESS:     134225
L2C USEFUL LOAD PREFETCHES:      42859 PREFETCH ISSUED TO LOWER LEVEL:     181956  ACCURACY: 23.5546
L2C TIMELY PREFETCHES:      42859 LATE PREFETCHES: 4296 DROPPED PREFETCHES: 0
L2C PREFETCHES SAME FILL-ORIGIN LEVEL: 101057 DIFFERENT FILL-ORIGIN LEVEL: 0
L2C AVERAGE MISS LATENCY: 67.389 cycles
L2C RQ	ACCESS:    2697122	FORWARD:          0	MERGED:          0	TO_CACHE:    2697104
L2C WQ	ACCESS:      90830	FORWARD:         20	MERGED:          0	TO_CACHE:      90830
L2C PQ	ACCESS:    1188456	FORWARD:          0	MERGED:       7638	TO_CACHE:    1180816

L2C Instructions Evicting Data 103878
L2C Translations Evicting Data 3330
L2C Data Evicting Data 208263
L2C Instructions Evicting Instructions 52294
L2C Translations Evicting Instructions 1901
L2C Data Evicting Instructions 104190
L2C Instructions Evicting Translations 1824
L2C Translations Evicting Translations 81
L2C Data Evicting Translations 3282
L2C Dense regions hint from L2: 0
PSCL5 TOTAL     ACCESS:      10664  HIT:      10664  MISS:          0  HIT %:        100  MISS %:          0   MPKI: 0
PSCL5 LOAD TRANSLATION ACCESS:      10664  HIT:      10664  MISS:          0  HIT %:        100  MISS %:          0   MPKI: 0
PSCL5 PREFETCH  REQUESTED:          0  ISSUED:          0  USEFUL:          0  USELESS:          0
PSCL5 USEFUL LOAD PREFETCHES:          0 PREFETCH ISSUED TO LOWER LEVEL:          0  ACCURACY: -nan
PSCL5 TIMELY PREFETCHES:          0 LATE PREFETCHES: 0 DROPPED PREFETCHES: 0
PSCL5 PREFETCHES SAME FILL-ORIGIN LEVEL: 0 DIFFERENT FILL-ORIGIN LEVEL: 0

PSCL4 TOTAL     ACCESS:      10664  HIT:      10664  MISS:          0  HIT %:        100  MISS %:          0   MPKI: 0
PSCL4 LOAD TRANSLATION ACCESS:      10664  HIT:      10664  MISS:          0  HIT %:        100  MISS %:          0   MPKI: 0
PSCL4 PREFETCH  REQUESTED:          0  ISSUED:          0  USEFUL:          0  USELESS:          0
PSCL4 USEFUL LOAD PREFETCHES:          0 PREFETCH ISSUED TO LOWER LEVEL:          0  ACCURACY: -nan
PSCL4 TIMELY PREFETCHES:          0 LATE PREFETCHES: 0 DROPPED PREFETCHES: 0
PSCL4 PREFETCHES SAME FILL-ORIGIN LEVEL: 0 DIFFERENT FILL-ORIGIN LEVEL: 0

PSCL3 TOTAL     ACCESS:      10658  HIT:      10646  MISS:         12  HIT %:    99.8874  MISS %:   0.112591   MPKI: 0.00024
PSCL3 LOAD TRANSLATION ACCESS:      10658  HIT:      10646  MISS:         12  HIT %:    99.8874  MISS %:   0.112591   MPKI: 0.00024
PSCL3 PREFETCH  REQUESTED:          0  ISSUED:          0  USEFUL:          0  USELESS:          0
PSCL3 USEFUL LOAD PREFETCHES:          0 PREFETCH ISSUED TO LOWER LEVEL:          0  ACCURACY: -nan
PSCL3 TIMELY PREFETCHES:          0 LATE PREFETCHES: 0 DROPPED PREFETCHES: 0
PSCL3 PREFETCHES SAME FILL-ORIGIN LEVEL: 0 DIFFERENT FILL-ORIGIN LEVEL: 0

PSCL2 TOTAL     ACCESS:      10664  HIT:      10042  MISS:        622  HIT %:    94.1673  MISS %:    5.83271   MPKI: 0.01244
PSCL2 LOAD TRANSLATION ACCESS:      10664  HIT:      10042  MISS:        622  HIT %:    94.1673  MISS %:    5.83271   MPKI: 0.01244
PSCL2 PREFETCH  REQUESTED:          0  ISSUED:          0  USEFUL:          0  USELESS:          0
PSCL2 USEFUL LOAD PREFETCHES:          0 PREFETCH ISSUED TO LOWER LEVEL:          0  ACCURACY: -nan
PSCL2 TIMELY PREFETCHES:          0 LATE PREFETCHES: 0 DROPPED PREFETCHES: 0
PSCL2 PREFETCHES SAME FILL-ORIGIN LEVEL: 0 DIFFERENT FILL-ORIGIN LEVEL: 0

LLC TOTAL     ACCESS:     521955  HIT:     414376  MISS:     107579  HIT %:    79.3892  MISS %:    20.6108   MPKI: 2.15158
LLC LOAD      ACCESS:     260389  HIT:     226639  MISS:      33750  HIT %:    87.0386  MISS %:    12.9614   MPKI: 0.675
LLC RFO       ACCESS:      31386  HIT:       3981  MISS:      27405  HIT %:     12.684  MISS %:     87.316   MPKI: 0.5481
LLC PREFETCH  ACCESS:     181956  HIT:     136840  MISS:      45116  HIT %:     75.205  MISS %:     24.795   MPKI: 0.90232
LLC WRITEBACK ACCESS:      42912  HIT:      42786  MISS:        126  HIT %:    99.7064  MISS %:   0.293624   MPKI: 0.00252
LLC LOAD TRANSLATION ACCESS:       5312  HIT:       4130  MISS:       1182  HIT %:    77.7485  MISS %:    22.2515   MPKI: 0.02364
LLC PREFETCH  REQUESTED:          0  ISSUED:          0  USEFUL:       2546  USELESS:      40168
LLC USEFUL LOAD PREFETCHES:       2546 PREFETCH ISSUED TO LOWER LEVEL:      45116  ACCURACY: 5.64323
LLC TIMELY PREFETCHES:       2546 LATE PREFETCHES: 0 DROPPED PREFETCHES: 0
LLC PREFETCHES SAME FILL-ORIGIN LEVEL: 0 DIFFERENT FILL-ORIGIN LEVEL: 0
LLC AVERAGE MISS LATENCY: 167.194 cycles
LLC RQ	ACCESS:     297087	FORWARD:          0	MERGED:          0	TO_CACHE:     297087
LLC WQ	ACCESS:      42912	FORWARD:          0	MERGED:          0	TO_CACHE:      42912
LLC PQ	ACCESS:     181956	FORWARD:          0	MERGED:          0	TO_CACHE:     181956

LLC Dense regions hint to LLC: 0

RAW hits: 713476
Loads Generated: 15934110
Loads sent to L1D: 15220633
Stores Generated: 3175979
Stores sent to L1D: 3175977
Major fault: 0 Minor fault: 3885
Allocated PAGES: 3885

stream: 
stream:times selected: 1365844
stream:pref_filled: 240623
stream:pref_useful: 27494
stream:pref_late: 2480
stream:misses: 55993
stream:misses_by_poll: 0

CS: 
CS:times selected: 40043
CS:pref_filled: 25465
CS:pref_useful: 14702
CS:pref_late: 3307
CS:misses: 12083
CS:misses_by_poll: 31

CPLX: 
CPLX:times selected: 1304320
CPLX:pref_filled: 102868
CPLX:pref_useful: 6624
CPLX:pref_late: 138
CPLX:misses: 121073
CPLX:misses_by_poll: 18

NL_L1: 
NL:times selected: 4377
NL:pref_filled: 1959
NL:pref_useful: 1247
NL:pref_late: 32
NL:misses: 699
NL:misses_by_poll: 0

total selections: 2714584
total_filled: 318954
total_useful: 43102
total_late: 6176
total_polluted: 49
total_misses_after_warmup: 1172463
conflicts: 3366760
Degree Incremented Times: 0
Degree Decremented Times: 185332

L1 IP Table Write Accesses: 6650504
L1 IP Table Read Accesses: 3283744
L1 RST Write Accesses: 1137181
L1 RST Read Accesses: 2274362
L1 CSPT Write Accesses: 1137181
L1 CSPT Read Accesses: 2220754
L1 RR Filter Tag Write Accesses: 803628
L1 RR Filter Tag Read Accesses: 39677502
L1 IP Table Tag Write Accesses: 10671094
L1 IP Table Tag Read Accesses: 10671094
L1 RST Tag Write Accesses: 0
L1 RST Tag Read Accesses: 11194169
L1 RR Filter Write Accesses: 0
L1 RR Filter Read Accesses: 1504543
test: 935580
L2 IP Table Read Accesses: 1914550
L2 IP Table Write Accesses: 2460327
L2 IP Table Tag Read Accesses: 1397079
L2 IP Table Tag Write Accesses: 1397079

DRAM Statistics
 CHANNEL 0
 RQ ROW_BUFFER_HIT:      30485  ROW_BUFFER_MISS:      76968
 DBUS_CONGESTED:      45310
 WQ ROW_BUFFER_HIT:       6613  ROW_BUFFER_MISS:      26777  FULL:          0

 AVG_CONGESTED_CYCLE: 30
 All warmup complete: 2
Channel 0 Bank busy for read cycles: 0
Channel 0 Bank busy for write cycles: 0
Channel 0
Rank 0
0banks busy for read cycles: 87040527
0banks busy for write cycles: 19716
1banks busy for read cycles: 7076634
1banks busy for write cycles: 2938431
2banks busy for read cycles: 2066791
2banks busy for write cycles: 754692
3banks busy for read cycles: 573683
3banks busy for write cycles: 271715
4banks busy for read cycles: 167116
4banks busy for write cycles: 131841
5banks busy for read cycles: 56342
5banks busy for write cycles: 79968
6banks busy for read cycles: 30210
6banks busy for write cycles: 56040
7banks busy for read cycles: 20215
7banks busy for write cycles: 47428
8banks busy for read cycles: 63679
8banks busy for write cycles: 117217

CPU 0 Branch Prediction Accuracy: 95.1378% MPKI: 11.6522 Average ROB Occupancy at Mispredict: 32.465
Branch types
NOT_BRANCH: 38017068 76.0341%
BRANCH_DIRECT_JUMP: 559530 1.11906%
BRANCH_INDIRECT: 465173 0.930346%
BRANCH_CONDITIONAL: 8973461 17.9469%
BRANCH_DIRECT_CALL: 312096 0.624192%
BRANCH_INDIRECT_CALL: 680109 1.36022%
BRANCH_RETURN: 992228 1.98446%
BRANCH_OTHER: 0 0%

@sumon_overall_L1D     43102     12015    275873    318954   1607199   1607211
@Sumon_Early_by_class_L1D     22310     12964      5549        26
@Sumon_Late_by_class_L1D      2242      3256       130        26

@Sumon_Early_by_cycle_L1D      7995      3737      3002      2764      2534      5976      5153      2624      3948      3570      1291       508
@Sumon_Late_by_cycle_L1D      4126       848       425       302       115        40         0         0         0         0         0         0
@Sumon_Early_stream_L1D      4735      2504      1550      1486      1122      2357      1145      1252      2132      2634       998       395
@Sumon_Early_CS_L1D      2058       555       831       922       904      2692      3446       633       795        73        35        20
@Sumon_Early_CPLX_L1D       746       478       447       300       217       457       332       624       835       786       237        90
@Sumon_Late_stream_L1D      2048       176        16         1         1         0         0         0         0         0         0         0
@Sumon_Late_CS_L1D      1756       636       409       301       114        40         0         0         0         0         0         0
@Sumon_Late_CPLX_L1D       110        20         0         0         0         0         0         0         0         0         0         0
@sumon_overall_L2C     42859      4296    134225    177660    869416    869416
@Sumon_Early_by_class_L2C      2114       132      1165         0
@Sumon_Late_by_class_L2C         0         0         0         0

@Sumon_Early_by_cycle_L2C      8292      6788      9196      2487       771      2078      1921      1625      1024      1153      1202      6322
@Sumon_Late_by_cycle_L2C      3928       349        19         0         0         0         0         0         0         0         0         0
@Sumon_Early_stream_L2C         0         0         0         0         0         0         0         1         5       120       299      1689
@Sumon_Early_CS_L2C         0         0         0         0         0         0         0         0         0         0        10       122
@Sumon_Early_CPLX_L2C         0         0         0         0         0         0         0         0         4        93       168       900
@Sumon_Late_stream_L2C         0         0         0         0         0         0         0         0         0         0         0         0
@Sumon_Late_CS_L2C         0         0         0         0         0         0         0         0         0         0         0         0
@Sumon_Late_CPLX_L2C         0         0         0         0         0         0         0         0         0         0         0         0
DRAM PAGES: 1048576
Allocated PAGES: 3885
