
*** ChampSim Multicore Out-of-Order Simulator ***

Warmup Instructions: 10000000
Simulation Instructions: 50000000
Number of CPUs: 1
LLC sets: 2048
LLC ways: 16
Off-chip DRAM Size: 4096 MB Channels: 1 Width: 64-bit Data Rate: 800 MT/s
CPU 0 runs traces/clientserver/server_016.champsimtrace.xz
.xz
CPU 0 Bimodal branch predictor
BTB has LRU replacement policy
ITLB has LRU replacement policy
DTLB has LRU replacement policy
STLB has LRU replacement policy
L1I has LRU replacement policy
IP Table Entries: 256
L1D has LRU replacement policy
IP_Table L2 entries: 256
L2C has LRU replacement policy
LLC has LRU replacement policy
Heartbeat CPU 0 instructions: 10000000 cycles: 2875280 heartbeat IPC: 3.47792 cumulative IPC: 3.47792 (Simulation time: 0 hr 18 min 53 sec) 

Warmup complete CPU 0 instructions: 10000004 cycles: 2875281 (Simulation time: 0 hr 18 min 53 sec) 

Heartbeat CPU 0 instructions: 20000000 cycles: 26454130 heartbeat IPC: 0.424109 cumulative IPC: 0.424109 (Simulation time: 0 hr 36 min 40 sec) 
Heartbeat CPU 0 instructions: 30000001 cycles: 50096559 heartbeat IPC: 0.422968 cumulative IPC: 0.423538 (Simulation time: 0 hr 54 min 18 sec) 
Heartbeat CPU 0 instructions: 40000000 cycles: 66602498 heartbeat IPC: 0.605842 cumulative IPC: 0.470756 (Simulation time: 1 hr 8 min 8 sec) 
Heartbeat CPU 0 instructions: 50000002 cycles: 80917175 heartbeat IPC: 0.698584 cumulative IPC: 0.512545 (Simulation time: 1 hr 20 min 33 sec) 
Heartbeat CPU 0 instructions: 60000003 cycles: 96314412 heartbeat IPC: 0.649467 cumulative IPC: 0.535108 (Simulation time: 1 hr 33 min 27 sec) 
Finished CPU 0 instructions: 50000002 cycles: 93439132 cumulative IPC: 0.535108 (Simulation time: 1 hr 33 min 27 sec) 

ChampSim completed all CPUs

Region of Interest Statistics

CPU 0 cumulative IPC: 0.535108 instructions: 50000002 cycles: 93439132
ITLB TOTAL     ACCESS:   10321917  HIT:   10116301  MISS:     205616  HIT %:     98.008  MISS %:    1.99203   MPKI: 4.11232
ITLB LOAD TRANSLATION ACCESS:   10321917  HIT:   10116301  MISS:     205616  HIT %:     98.008  MISS %:    1.99203   MPKI: 4.11232
ITLB PREFETCH  REQUESTED:          0  ISSUED:          0  USEFUL:          0  USELESS:          0
ITLB USEFUL LOAD PREFETCHES:          0 PREFETCH ISSUED TO LOWER LEVEL:          0  ACCURACY: -nan
ITLB TIMELY PREFETCHES:          0 LATE PREFETCHES: 0 DROPPED PREFETCHES: 0
ITLB PREFETCHES SAME FILL-ORIGIN LEVEL: 0 DIFFERENT FILL-ORIGIN LEVEL: 0
ITLB AVERAGE MISS LATENCY: 9.13358 cycles
ITLB RQ	ACCESS:   11155175	FORWARD:          0	MERGED:     782197	TO_CACHE:   10372978

DTLB TOTAL     ACCESS:    8441765  HIT:    8225206  MISS:     216559  HIT %:    97.4347  MISS %:    2.56533   MPKI: 4.33118
DTLB LOAD TRANSLATION ACCESS:    8441765  HIT:    8225206  MISS:     216559  HIT %:    97.4347  MISS %:    2.56533   MPKI: 4.33118
DTLB PREFETCH  REQUESTED:          0  ISSUED:          0  USEFUL:          0  USELESS:          0
DTLB USEFUL LOAD PREFETCHES:          0 PREFETCH ISSUED TO LOWER LEVEL:          0  ACCURACY: -nan
DTLB TIMELY PREFETCHES:          0 LATE PREFETCHES: 0 DROPPED PREFETCHES: 0
DTLB PREFETCHES SAME FILL-ORIGIN LEVEL: 0 DIFFERENT FILL-ORIGIN LEVEL: 0
DTLB AVERAGE MISS LATENCY: 9.57685 cycles
DTLB RQ	ACCESS:   10112579	FORWARD:          0	MERGED:    1661197	TO_CACHE:    8451382

STLB TOTAL     ACCESS:    2420874  HIT:    2419487  MISS:       1387  HIT %:    99.9427  MISS %:  0.0572934   MPKI: 0.02774
STLB LOAD TRANSLATION ACCESS:     422175  HIT:     420788  MISS:       1387  HIT %:    99.6715  MISS %:   0.328537   MPKI: 0.02774
STLB TRANSLATION FROM L1D PREFETCHER ACCESS:    1998699  HIT:    1998699  MISS:          0  HIT %:        100  MISS %:          0   MPKI: 0
STLB PREFETCH  REQUESTED:          0  ISSUED:          0  USEFUL:          0  USELESS:          0
STLB USEFUL LOAD PREFETCHES:          0 PREFETCH ISSUED TO LOWER LEVEL:          0  ACCURACY: -nan
STLB TIMELY PREFETCHES:          0 LATE PREFETCHES: 0 DROPPED PREFETCHES: 0
STLB PREFETCHES SAME FILL-ORIGIN LEVEL: 0 DIFFERENT FILL-ORIGIN LEVEL: 0
STLB AVERAGE MISS LATENCY: 105.846 cycles
STLB RQ	ACCESS:    4427395	FORWARD:          0	MERGED:    2006521	TO_CACHE:    2420874

STLB Hit, L1D data hit: 0
STLB Hit, L2C data hit: 0
STLB Hit, LLC data hit: 0
STLB Hit, LLC data miss: 0
STLB STLB hints to L2: 0
L1D TOTAL     ACCESS:   13855994  HIT:   13325803  MISS:     530191  HIT %:    96.1736  MISS %:    3.82644   MPKI: 10.6038
L1D LOAD      ACCESS:    6489462  HIT:    6193663  MISS:     295799  HIT %:    95.4419  MISS %:    4.55814   MPKI: 5.91598
L1D RFO       ACCESS:    3371775  HIT:    3240817  MISS:     130958  HIT %:    96.1161  MISS %:    3.88395   MPKI: 2.61916
L1D PREFETCH  ACCESS:    3994757  HIT:    3891323  MISS:     103434  HIT %:    97.4108  MISS %:    2.58924   MPKI: 2.06868
L1D PREFETCH  REQUESTED:    8012061  ISSUED:    8010556  USEFUL:      28358  USELESS:      75051
L1D USEFUL LOAD PREFETCHES:      28358 PREFETCH ISSUED TO LOWER LEVEL:     103569  ACCURACY: 27.3808
L1D TIMELY PREFETCHES:      28358 LATE PREFETCHES: 31070 DROPPED PREFETCHES: 0
L1D PREFETCHES SAME FILL-ORIGIN LEVEL: 103569 DIFFERENT FILL-ORIGIN LEVEL: 0
L1D AVERAGE MISS LATENCY: 7957.25 cycles
L1D RQ	ACCESS:    8252940	FORWARD:          0	MERGED:    1665935	TO_CACHE:    6538045
L1D WQ	ACCESS:    3595475	FORWARD:      49076	MERGED:      20941	TO_CACHE:    3574534
L1D PQ	ACCESS:    4005336	FORWARD:          0	MERGED:          0	TO_CACHE:    4005220

L1D UNIQUE REGIONS ACCESSED: 0
L1D REGIONS CONFLICTS: 0
L1D Cross Page Prefetch Requests: 0
L1D Same Page Prefetch Requests: 4126168
L1D ROI Sum of L1D PQ occupancy: 52398246
L1D PREFETCHES PUSHED FROM L2C: 0
L1I TOTAL     ACCESS:   10958817  HIT:    9800879  MISS:    1157938  HIT %:    89.4337  MISS %:    10.5663   MPKI: 23.1588
L1I LOAD      ACCESS:   10958817  HIT:    9800879  MISS:    1157938  HIT %:    89.4337  MISS %:    10.5663   MPKI: 23.1588
L1I PREFETCH  REQUESTED:          0  ISSUED:          0  USEFUL:          0  USELESS:          0
L1I USEFUL LOAD PREFETCHES:          0 PREFETCH ISSUED TO LOWER LEVEL:          0  ACCURACY: -nan
L1I TIMELY PREFETCHES:          0 LATE PREFETCHES: 0 DROPPED PREFETCHES: 0
L1I PREFETCHES SAME FILL-ORIGIN LEVEL: 0 DIFFERENT FILL-ORIGIN LEVEL: 0
L1I AVERAGE MISS LATENCY: 18.7282 cycles
L1I RQ	ACCESS:   13266998	FORWARD:          0	MERGED:    2111823	TO_CACHE:   11155175

BTB TOTAL     ACCESS:    7190451  HIT:    6378068  MISS:     812383  HIT %:    88.7019  MISS %:    11.2981   MPKI: 16.2477
BTB BRANCH_DIRECT_JUMP	ACCESS:     339310  HIT:     269835  MISS:      69475
BTB BRANCH_INDIRECT	ACCESS:     121946  HIT:     106677  MISS:      15269
BTB BRANCH_CONDITIONAL	ACCESS:    5612690  HIT:    5396943  MISS:     215747
BTB BRANCH_DIRECT_CALL	ACCESS:     483870  HIT:     323041  MISS:     160829
BTB BRANCH_INDIRECT_CALL	ACCESS:      74389  HIT:      41457  MISS:      32932
BTB BRANCH_RETURN	ACCESS:     558246  HIT:     240115  MISS:     318131
BTB BRANCH_OTHER ACCESS:          0  HIT:          0  MISS:          0

L2C TOTAL     ACCESS:    2158447  HIT:    1817998  MISS:     340449  HIT %:    84.2271  MISS %:    15.7729   MPKI: 6.80898
L2C LOAD      ACCESS:    1453737  HIT:    1228742  MISS:     224995  HIT %:     84.523  MISS %:     15.477   MPKI: 4.4999
L2C DATA LOAD MPKI: 1.0579
L2C INSTRUCTION LOAD MPKI: 3.442
L2C RFO       ACCESS:     130814  HIT:      90876  MISS:      39938  HIT %:    69.4696  MISS %:    30.5304   MPKI: 0.79876
L2C PREFETCH  ACCESS:     346133  HIT:     274495  MISS:      71638  HIT %:    79.3033  MISS %:    20.6967   MPKI: 1.43276
L2C DATA PREFETCH MPKI: 1.43276
L2C INSTRUCTION PREFETCH MPKI: 0
L2C WRITEBACK ACCESS:     226210  HIT:     223437  MISS:       2773  HIT %:    98.7741  MISS %:    1.22585   MPKI: 0.05546
L2C LOAD TRANSLATION ACCESS:       1553  HIT:        448  MISS:       1105  HIT %:    28.8474  MISS %:    71.1526   MPKI: 0.0221
L2C PREFETCH  REQUESTED:     249016  ISSUED:     249016  USEFUL:      11443  USELESS:      60267
L2C USEFUL LOAD PREFETCHES:      11443 PREFETCH ISSUED TO LOWER LEVEL:      73058  ACCURACY: 15.6629
L2C TIMELY PREFETCHES:      11443 LATE PREFETCHES: 1420 DROPPED PREFETCHES: 0
L2C PREFETCHES SAME FILL-ORIGIN LEVEL: 37118 DIFFERENT FILL-ORIGIN LEVEL: 0
L2C AVERAGE MISS LATENCY: 51.617 cycles
L2C RQ	ACCESS:    1586113	FORWARD:          0	MERGED:          0	TO_CACHE:    1586104
L2C WQ	ACCESS:     226210	FORWARD:         11	MERGED:          0	TO_CACHE:     226210
L2C PQ	ACCESS:     352585	FORWARD:          0	MERGED:       2558	TO_CACHE:     350025

L2C Instructions Evicting Data 78950
L2C Translations Evicting Data 738
L2C Data Evicting Data 86534
L2C Instructions Evicting Instructions 92757
L2C Translations Evicting Instructions 359
L2C Data Evicting Instructions 77240
L2C Instructions Evicting Translations 393
L2C Translations Evicting Translations 8
L2C Data Evicting Translations 697
L2C Dense regions hint from L2: 0
PSCL5 TOTAL     ACCESS:       1387  HIT:       1387  MISS:          0  HIT %:        100  MISS %:          0   MPKI: 0
PSCL5 LOAD TRANSLATION ACCESS:       1387  HIT:       1387  MISS:          0  HIT %:        100  MISS %:          0   MPKI: 0
PSCL5 PREFETCH  REQUESTED:          0  ISSUED:          0  USEFUL:          0  USELESS:          0
PSCL5 USEFUL LOAD PREFETCHES:          0 PREFETCH ISSUED TO LOWER LEVEL:          0  ACCURACY: -nan
PSCL5 TIMELY PREFETCHES:          0 LATE PREFETCHES: 0 DROPPED PREFETCHES: 0
PSCL5 PREFETCHES SAME FILL-ORIGIN LEVEL: 0 DIFFERENT FILL-ORIGIN LEVEL: 0

PSCL4 TOTAL     ACCESS:       1268  HIT:       1262  MISS:          6  HIT %:    99.5268  MISS %:   0.473186   MPKI: 0.00012
PSCL4 LOAD TRANSLATION ACCESS:       1268  HIT:       1262  MISS:          6  HIT %:    99.5268  MISS %:   0.473186   MPKI: 0.00012
PSCL4 PREFETCH  REQUESTED:          0  ISSUED:          0  USEFUL:          0  USELESS:          0
PSCL4 USEFUL LOAD PREFETCHES:          0 PREFETCH ISSUED TO LOWER LEVEL:          0  ACCURACY: -nan
PSCL4 TIMELY PREFETCHES:          0 LATE PREFETCHES: 0 DROPPED PREFETCHES: 0
PSCL4 PREFETCHES SAME FILL-ORIGIN LEVEL: 0 DIFFERENT FILL-ORIGIN LEVEL: 0

PSCL3 TOTAL     ACCESS:       1375  HIT:       1369  MISS:          6  HIT %:    99.5636  MISS %:   0.436364   MPKI: 0.00012
PSCL3 LOAD TRANSLATION ACCESS:       1375  HIT:       1369  MISS:          6  HIT %:    99.5636  MISS %:   0.436364   MPKI: 0.00012
PSCL3 PREFETCH  REQUESTED:          0  ISSUED:          0  USEFUL:          0  USELESS:          0
PSCL3 USEFUL LOAD PREFETCHES:          0 PREFETCH ISSUED TO LOWER LEVEL:          0  ACCURACY: -nan
PSCL3 TIMELY PREFETCHES:          0 LATE PREFETCHES: 0 DROPPED PREFETCHES: 0
PSCL3 PREFETCHES SAME FILL-ORIGIN LEVEL: 0 DIFFERENT FILL-ORIGIN LEVEL: 0

PSCL2 TOTAL     ACCESS:       1387  HIT:       1229  MISS:        158  HIT %:    88.6085  MISS %:    11.3915   MPKI: 0.00316
PSCL2 LOAD TRANSLATION ACCESS:       1387  HIT:       1229  MISS:        158  HIT %:    88.6085  MISS %:    11.3915   MPKI: 0.00316
PSCL2 PREFETCH  REQUESTED:          0  ISSUED:          0  USEFUL:          0  USELESS:          0
PSCL2 USEFUL LOAD PREFETCHES:          0 PREFETCH ISSUED TO LOWER LEVEL:          0  ACCURACY: -nan
PSCL2 TIMELY PREFETCHES:          0 LATE PREFETCHES: 0 DROPPED PREFETCHES: 0
PSCL2 PREFETCHES SAME FILL-ORIGIN LEVEL: 0 DIFFERENT FILL-ORIGIN LEVEL: 0

LLC TOTAL     ACCESS:     400848  HIT:     378494  MISS:      22354  HIT %:    94.4233  MISS %:    5.57668   MPKI: 0.44708
LLC LOAD      ACCESS:     223712  HIT:     219773  MISS:       3939  HIT %:    98.2393  MISS %:    1.76075   MPKI: 0.07878
LLC RFO       ACCESS:      39799  HIT:      29698  MISS:      10101  HIT %:      74.62  MISS %:      25.38   MPKI: 0.20202
LLC PREFETCH  ACCESS:      73058  HIT:      64978  MISS:       8080  HIT %:    88.9403  MISS %:    11.0597   MPKI: 0.1616
LLC WRITEBACK ACCESS:      63174  HIT:      63104  MISS:         70  HIT %:    99.8892  MISS %:   0.110805   MPKI: 0.0014
LLC LOAD TRANSLATION ACCESS:       1105  HIT:        941  MISS:        164  HIT %:    85.1584  MISS %:    14.8416   MPKI: 0.00328
LLC PREFETCH  REQUESTED:          0  ISSUED:          0  USEFUL:        915  USELESS:       6303
LLC USEFUL LOAD PREFETCHES:        915 PREFETCH ISSUED TO LOWER LEVEL:       8080  ACCURACY: 11.3243
LLC TIMELY PREFETCHES:        915 LATE PREFETCHES: 0 DROPPED PREFETCHES: 0
LLC PREFETCHES SAME FILL-ORIGIN LEVEL: 0 DIFFERENT FILL-ORIGIN LEVEL: 0
LLC AVERAGE MISS LATENCY: 334.785 cycles
LLC RQ	ACCESS:     264618	FORWARD:          0	MERGED:          0	TO_CACHE:     264616
LLC WQ	ACCESS:      63174	FORWARD:          2	MERGED:          0	TO_CACHE:      63174
LLC PQ	ACCESS:      73058	FORWARD:          0	MERGED:          0	TO_CACHE:      73058

LLC Dense regions hint to LLC: 0

RAW hits: 340616
Loads Generated: 8593557
Loads sent to L1D: 8252940
Stores Generated: 3595476
Stores sent to L1D: 3595475
Major fault: 0 Minor fault: 2141
Allocated PAGES: 2141

stream: 
stream:times selected: 2654833
stream:pref_filled: 83117
stream:pref_useful: 15226
stream:pref_late: 23636
stream:misses: 6934
stream:misses_by_poll: 0

CS: 
CS:times selected: 2040424
CS:pref_filled: 39648
CS:pref_useful: 25662
CS:pref_late: 3995
CS:misses: 11763
CS:misses_by_poll: 1

CPLX: 
CPLX:times selected: 612733
CPLX:pref_filled: 18476
CPLX:pref_useful: 5436
CPLX:pref_late: 1535
CPLX:misses: 65457
CPLX:misses_by_poll: 3

NL_L1: 
NL:times selected: 4211
NL:pref_filled: 387
NL:pref_useful: 37
NL:pref_late: 21
NL:misses: 337
NL:misses_by_poll: 0

total selections: 5312201
total_filled: 103434
total_useful: 28358
total_late: 29334
total_polluted: 4
total_misses_after_warmup: 344385
conflicts: 1399141
Degree Incremented Times: 1445
Degree Decremented Times: 76305

L1 IP Table Write Accesses: 4911857
L1 IP Table Read Accesses: 3512716
L1 RST Write Accesses: 2455963
L1 RST Read Accesses: 4911926
L1 CSPT Write Accesses: 2455963
L1 CSPT Read Accesses: 2897426
L1 RR Filter Tag Write Accesses: 4006841
L1 RR Filter Tag Read Accesses: 255981906
L1 IP Table Tag Write Accesses: 6538048
L1 IP Table Tag Read Accesses: 6538048
L1 RST Tag Write Accesses: 0
L1 RST Tag Read Accesses: 21242603
L1 RR Filter Write Accesses: 0
L1 RR Filter Read Accesses: 8355803
test: 174392
L2 IP Table Read Accesses: 542190
L2 IP Table Write Accesses: 711448
L2 IP Table Tag Read Accesses: 396841
L2 IP Table Tag Write Accesses: 396841

DRAM Statistics
 CHANNEL 0
 RQ ROW_BUFFER_HIT:      11179  ROW_BUFFER_MISS:      11100
 DBUS_CONGESTED:      19401
 WQ ROW_BUFFER_HIT:        742  ROW_BUFFER_MISS:       4322  FULL:          0

 AVG_CONGESTED_CYCLE: 36
 All warmup complete: 2
Channel 0 Bank busy for read cycles: 0
Channel 0 Bank busy for write cycles: 0
Channel 0
Rank 0
0banks busy for read cycles: 91573693
0banks busy for write cycles: 1444
1banks busy for read cycles: 534360
1banks busy for write cycles: 181062
2banks busy for read cycles: 289292
2banks busy for write cycles: 69788
3banks busy for read cycles: 95827
3banks busy for write cycles: 38775
4banks busy for read cycles: 68321
4banks busy for write cycles: 32853
5banks busy for read cycles: 49568
5banks busy for write cycles: 26326
6banks busy for read cycles: 44254
6banks busy for write cycles: 19138
7banks busy for read cycles: 55503
7banks busy for write cycles: 17047
8banks busy for read cycles: 285460
8banks busy for write cycles: 56422

CPU 0 Branch Prediction Accuracy: 95.959% MPKI: 7.171 Average ROB Occupancy at Mispredict: 18.1213
Branch types
NOT_BRANCH: 41127058 82.2541%
BRANCH_DIRECT_JUMP: 339310 0.67862%
BRANCH_INDIRECT: 121946 0.243892%
BRANCH_CONDITIONAL: 7295137 14.5903%
BRANCH_DIRECT_CALL: 483870 0.96774%
BRANCH_INDIRECT_CALL: 74389 0.148778%
BRANCH_RETURN: 558246 1.11649%
BRANCH_OTHER: 0 0%

@sumon_overall_L1D     28358     31070     75051    103434   8010556   8012061
@Sumon_Early_by_class_L1D      8560     17398      1942         9
@Sumon_Late_by_class_L1D     22611      3733      1130         9

@Sumon_Early_by_cycle_L1D     19742      1210      1076      2139       175       422       355      1070       510      1136       380       143
@Sumon_Late_by_cycle_L1D     26064      1074       454         8         1         7         0         0         1         0         0         0
@Sumon_Early_stream_L1D      2528       739       688      1683        96       245       276       681       299       846       341       138
@Sumon_Early_CS_L1D     16359       386       278        93        11        18        21       169        28        33         1         1
@Sumon_Early_CPLX_L1D       782        49        88       312        24       138        56       212       100       141        38         2
@Sumon_Late_stream_L1D     22548        56         6         1         0         0         0         0         0         0         0         0
@Sumon_Late_CS_L1D      2294       975       448         7         1         7         0         0         1         0         0         0
@Sumon_Late_CPLX_L1D      1123         7         0         0         0         0         0         0         0         0         0         0
@sumon_overall_L2C     11443      1420     60267     71638    249016    249016
@Sumon_Early_by_class_L2C      1369        92       305         0
@Sumon_Late_by_class_L2C         0         0         0         0

@Sumon_Early_by_cycle_L2C      1877      1008       581       641       311      1281       987       794       261       362       543      2797
@Sumon_Late_by_cycle_L2C      1133       285         2         0         0         0         0         0         0         0         0         0
@Sumon_Early_stream_L2C         0         0         0         0         0         0         0         0         0         7       172      1190
@Sumon_Early_CS_L2C         0         0         0         0         0         0         0         0         0         0         0        92
@Sumon_Early_CPLX_L2C         0         0         0         0         0         0         0         0         0         0        36       269
@Sumon_Late_stream_L2C         0         0         0         0         0         0         0         0         0         0         0         0
@Sumon_Late_CS_L2C         0         0         0         0         0         0         0         0         0         0         0         0
@Sumon_Late_CPLX_L2C         0         0         0         0         0         0         0         0         0         0         0         0
DRAM PAGES: 1048576
Allocated PAGES: 2141
