
*** ChampSim Multicore Out-of-Order Simulator ***

Warmup Instructions: 10000000
Simulation Instructions: 50000000
Number of CPUs: 1
LLC sets: 2048
LLC ways: 16
Off-chip DRAM Size: 4096 MB Channels: 1 Width: 64-bit Data Rate: 800 MT/s
CPU 0 runs traces/clientserver/server_020.champsimtrace.xz
.xz
CPU 0 Bimodal branch predictor
BTB has LRU replacement policy
ITLB has LRU replacement policy
DTLB has LRU replacement policy
STLB has LRU replacement policy
L1I has LRU replacement policy
IP Table Entries: 256
L1D has LRU replacement policy
IP_Table L2 entries: 256
L2C has LRU replacement policy
LLC has LRU replacement policy
Heartbeat CPU 0 instructions: 10000003 cycles: 3150962 heartbeat IPC: 3.17364 cumulative IPC: 3.17364 (Simulation time: 0 hr 20 min 26 sec) 

Warmup complete CPU 0 instructions: 10000003 cycles: 3150962 (Simulation time: 0 hr 20 min 26 sec) 

Heartbeat CPU 0 instructions: 20000001 cycles: 34466346 heartbeat IPC: 0.319332 cumulative IPC: 0.319332 (Simulation time: 0 hr 57 min 58 sec) 
Heartbeat CPU 0 instructions: 30000000 cycles: 65965241 heartbeat IPC: 0.317471 cumulative IPC: 0.318399 (Simulation time: 1 hr 35 min 34 sec) 
Heartbeat CPU 0 instructions: 40000001 cycles: 97570857 heartbeat IPC: 0.316399 cumulative IPC: 0.31773 (Simulation time: 1 hr 51 min 24 sec) 
Heartbeat CPU 0 instructions: 50000000 cycles: 128892227 heartbeat IPC: 0.319271 cumulative IPC: 0.318114 (Simulation time: 1 hr 57 min 20 sec) 
Heartbeat CPU 0 instructions: 60000000 cycles: 160314644 heartbeat IPC: 0.318244 cumulative IPC: 0.31814 (Simulation time: 2 hr 2 min 49 sec) 
Finished CPU 0 instructions: 50000003 cycles: 157163689 cumulative IPC: 0.31814 (Simulation time: 2 hr 2 min 49 sec) 

ChampSim completed all CPUs

Region of Interest Statistics

CPU 0 cumulative IPC: 0.31814 instructions: 50000003 cycles: 157163689
ITLB TOTAL     ACCESS:    9134690  HIT:    8763311  MISS:     371379  HIT %:    95.9344  MISS %:    4.06559   MPKI: 7.42758
ITLB LOAD TRANSLATION ACCESS:    9134690  HIT:    8763311  MISS:     371379  HIT %:    95.9344  MISS %:    4.06559   MPKI: 7.42758
ITLB PREFETCH  REQUESTED:          0  ISSUED:          0  USEFUL:          0  USELESS:          0
ITLB USEFUL LOAD PREFETCHES:          0 PREFETCH ISSUED TO LOWER LEVEL:          0  ACCURACY: -nan
ITLB TIMELY PREFETCHES:          0 LATE PREFETCHES: 0 DROPPED PREFETCHES: 0
ITLB PREFETCHES SAME FILL-ORIGIN LEVEL: 0 DIFFERENT FILL-ORIGIN LEVEL: 0
ITLB AVERAGE MISS LATENCY: 9.52679 cycles
ITLB RQ	ACCESS:   10729475	FORWARD:          0	MERGED:    1475345	TO_CACHE:    9254130

DTLB TOTAL     ACCESS:   11856111  HIT:   11433260  MISS:     422851  HIT %:    96.4335  MISS %:    3.56652   MPKI: 8.45702
DTLB LOAD TRANSLATION ACCESS:   11856111  HIT:   11433260  MISS:     422851  HIT %:    96.4335  MISS %:    3.56652   MPKI: 8.45702
DTLB PREFETCH  REQUESTED:          0  ISSUED:          0  USEFUL:          0  USELESS:          0
DTLB USEFUL LOAD PREFETCHES:          0 PREFETCH ISSUED TO LOWER LEVEL:          0  ACCURACY: -nan
DTLB TIMELY PREFETCHES:          0 LATE PREFETCHES: 0 DROPPED PREFETCHES: 0
DTLB PREFETCHES SAME FILL-ORIGIN LEVEL: 0 DIFFERENT FILL-ORIGIN LEVEL: 0
DTLB AVERAGE MISS LATENCY: 19.602 cycles
DTLB RQ	ACCESS:   16638280	FORWARD:          0	MERGED:    4722950	TO_CACHE:   11915330

STLB TOTAL     ACCESS:    1470121  HIT:    1437308  MISS:      32813  HIT %:     97.768  MISS %:    2.23199   MPKI: 0.65626
STLB LOAD TRANSLATION ACCESS:     794230  HIT:     761417  MISS:      32813  HIT %:    95.8686  MISS %:    4.13142   MPKI: 0.65626
STLB TRANSLATION FROM L1D PREFETCHER ACCESS:     675891  HIT:     675891  MISS:          0  HIT %:        100  MISS %:          0   MPKI: 0
STLB PREFETCH  REQUESTED:          0  ISSUED:          0  USEFUL:          0  USELESS:          0
STLB USEFUL LOAD PREFETCHES:          0 PREFETCH ISSUED TO LOWER LEVEL:          0  ACCURACY: -nan
STLB TIMELY PREFETCHES:          0 LATE PREFETCHES: 0 DROPPED PREFETCHES: 0
STLB PREFETCHES SAME FILL-ORIGIN LEVEL: 0 DIFFERENT FILL-ORIGIN LEVEL: 0
STLB AVERAGE MISS LATENCY: 142.278 cycles
STLB RQ	ACCESS:    1636201	FORWARD:          0	MERGED:     166080	TO_CACHE:    1470121

STLB Hit, L1D data hit: 0
STLB Hit, L2C data hit: 0
STLB Hit, LLC data hit: 0
STLB Hit, LLC data miss: 0
STLB STLB hints to L2: 0
L1D TOTAL     ACCESS:   13970585  HIT:   12011278  MISS:    1959307  HIT %:    85.9755  MISS %:    14.0245   MPKI: 39.1861
L1D LOAD      ACCESS:    7215188  HIT:    6665717  MISS:     549471  HIT %:    92.3845  MISS %:    7.61548   MPKI: 10.9894
L1D RFO       ACCESS:    5948477  HIT:    4987631  MISS:     960846  HIT %:    83.8472  MISS %:    16.1528   MPKI: 19.2169
L1D PREFETCH  ACCESS:     806920  HIT:     357930  MISS:     448990  HIT %:    44.3576  MISS %:    55.6424   MPKI: 8.9798
L1D PREFETCH  REQUESTED:    1695067  ISSUED:    1683985  USEFUL:     139487  USELESS:     309471
L1D USEFUL LOAD PREFETCHES:     139487 PREFETCH ISSUED TO LOWER LEVEL:     449014  ACCURACY: 31.0652
L1D TIMELY PREFETCHES:     139487 LATE PREFETCHES: 753335 DROPPED PREFETCHES: 0
L1D PREFETCHES SAME FILL-ORIGIN LEVEL: 449014 DIFFERENT FILL-ORIGIN LEVEL: 0
L1D AVERAGE MISS LATENCY: 1201.08 cycles
L1D RQ	ACCESS:   11483783	FORWARD:          0	MERGED:    3350616	TO_CACHE:    8012061
L1D WQ	ACCESS:    8689751	FORWARD:     121145	MERGED:      63532	TO_CACHE:    8626219
L1D PQ	ACCESS:     842014	FORWARD:          0	MERGED:          4	TO_CACHE:     841971

L1D UNIQUE REGIONS ACCESSED: 0
L1D REGIONS CONFLICTS: 0
L1D Cross Page Prefetch Requests: 0
L1D Same Page Prefetch Requests: 1098792
L1D ROI Sum of L1D PQ occupancy: 55455140
L1D PREFETCHES PUSHED FROM L2C: 0
L1I TOTAL     ACCESS:   10012031  HIT:    7624819  MISS:    2387212  HIT %:    76.1566  MISS %:    23.8434   MPKI: 47.7442
L1I LOAD      ACCESS:   10012031  HIT:    7624819  MISS:    2387212  HIT %:    76.1566  MISS %:    23.8434   MPKI: 47.7442
L1I PREFETCH  REQUESTED:          0  ISSUED:          0  USEFUL:          0  USELESS:          0
L1I USEFUL LOAD PREFETCHES:          0 PREFETCH ISSUED TO LOWER LEVEL:          0  ACCURACY: -nan
L1I TIMELY PREFETCHES:          0 LATE PREFETCHES: 0 DROPPED PREFETCHES: 0
L1I PREFETCHES SAME FILL-ORIGIN LEVEL: 0 DIFFERENT FILL-ORIGIN LEVEL: 0
L1I AVERAGE MISS LATENCY: 17.0921 cycles
L1I RQ	ACCESS:   14685359	FORWARD:          0	MERGED:    3955884	TO_CACHE:   10729475

BTB TOTAL     ACCESS:    5369972  HIT:    5103286  MISS:     266686  HIT %:    95.0338  MISS %:    4.96625   MPKI: 5.33372
BTB BRANCH_DIRECT_JUMP	ACCESS:     456401  HIT:     454412  MISS:       1989
BTB BRANCH_INDIRECT	ACCESS:      50013  HIT:      49833  MISS:        180
BTB BRANCH_CONDITIONAL	ACCESS:    3043084  HIT:    3036854  MISS:       6230
BTB BRANCH_DIRECT_CALL	ACCESS:     742782  HIT:     738717  MISS:       4065
BTB BRANCH_INDIRECT_CALL	ACCESS:     167454  HIT:     138660  MISS:      28794
BTB BRANCH_RETURN	ACCESS:     910238  HIT:     684810  MISS:     225428
BTB BRANCH_OTHER ACCESS:          0  HIT:          0  MISS:          0

L2C TOTAL     ACCESS:    5849039  HIT:    3964772  MISS:    1884267  HIT %:     67.785  MISS %:     32.215   MPKI: 37.6853
L2C LOAD      ACCESS:    2936668  HIT:    2498651  MISS:     438017  HIT %:    85.0846  MISS %:    14.9154   MPKI: 8.76034
L2C DATA LOAD MPKI: 6.06448
L2C INSTRUCTION LOAD MPKI: 2.69586
L2C RFO       ACCESS:     960813  HIT:      29512  MISS:     931301  HIT %:    3.07157  MISS %:    96.9284   MPKI: 18.626
L2C PREFETCH  ACCESS:     761937  HIT:     267784  MISS:     494153  HIT %:    35.1452  MISS %:    64.8548   MPKI: 9.88306
L2C DATA PREFETCH MPKI: 9.88306
L2C INSTRUCTION PREFETCH MPKI: 0
L2C WRITEBACK ACCESS:    1153413  HIT:    1151180  MISS:       2233  HIT %:    99.8064  MISS %:   0.193599   MPKI: 0.04466
L2C LOAD TRANSLATION ACCESS:      36208  HIT:      17645  MISS:      18563  HIT %:    48.7323  MISS %:    51.2677   MPKI: 0.37126
L2C PREFETCH  REQUESTED:     343317  ISSUED:     343317  USEFUL:      55281  USELESS:     439200
L2C USEFUL LOAD PREFETCHES:      55281 PREFETCH ISSUED TO LOWER LEVEL:     498122  ACCURACY: 11.0979
L2C TIMELY PREFETCHES:      55281 LATE PREFETCHES: 3969 DROPPED PREFETCHES: 0
L2C PREFETCHES SAME FILL-ORIGIN LEVEL: 143742 DIFFERENT FILL-ORIGIN LEVEL: 0
L2C AVERAGE MISS LATENCY: 556.746 cycles
L2C RQ	ACCESS:    3933712	FORWARD:          0	MERGED:          0	TO_CACHE:    3933688
L2C WQ	ACCESS:    1153413	FORWARD:         25	MERGED:          0	TO_CACHE:    1153413
L2C PQ	ACCESS:     792331	FORWARD:          0	MERGED:       5802	TO_CACHE:     786528

L2C Instructions Evicting Data 125411
L2C Translations Evicting Data 17241
L2C Data Evicting Data 1586133
L2C Instructions Evicting Instructions 8087
L2C Translations Evicting Instructions 1140
L2C Data Evicting Instructions 125481
L2C Instructions Evicting Translations 1295
L2C Translations Evicting Translations 182
L2C Data Evicting Translations 17064
L2C Dense regions hint from L2: 0
PSCL5 TOTAL     ACCESS:      32813  HIT:      32813  MISS:          0  HIT %:        100  MISS %:          0   MPKI: 0
PSCL5 LOAD TRANSLATION ACCESS:      32813  HIT:      32813  MISS:          0  HIT %:        100  MISS %:          0   MPKI: 0
PSCL5 PREFETCH  REQUESTED:          0  ISSUED:          0  USEFUL:          0  USELESS:          0
PSCL5 USEFUL LOAD PREFETCHES:          0 PREFETCH ISSUED TO LOWER LEVEL:          0  ACCURACY: -nan
PSCL5 TIMELY PREFETCHES:          0 LATE PREFETCHES: 0 DROPPED PREFETCHES: 0
PSCL5 PREFETCHES SAME FILL-ORIGIN LEVEL: 0 DIFFERENT FILL-ORIGIN LEVEL: 0

PSCL4 TOTAL     ACCESS:      32161  HIT:      32064  MISS:         97  HIT %:    99.6984  MISS %:   0.301608   MPKI: 0.00194
PSCL4 LOAD TRANSLATION ACCESS:      32161  HIT:      32064  MISS:         97  HIT %:    99.6984  MISS %:   0.301608   MPKI: 0.00194
PSCL4 PREFETCH  REQUESTED:          0  ISSUED:          0  USEFUL:          0  USELESS:          0
PSCL4 USEFUL LOAD PREFETCHES:          0 PREFETCH ISSUED TO LOWER LEVEL:          0  ACCURACY: -nan
PSCL4 TIMELY PREFETCHES:          0 LATE PREFETCHES: 0 DROPPED PREFETCHES: 0
PSCL4 PREFETCHES SAME FILL-ORIGIN LEVEL: 0 DIFFERENT FILL-ORIGIN LEVEL: 0

PSCL3 TOTAL     ACCESS:      32547  HIT:      32450  MISS:         97  HIT %:     99.702  MISS %:   0.298031   MPKI: 0.00194
PSCL3 LOAD TRANSLATION ACCESS:      32547  HIT:      32450  MISS:         97  HIT %:     99.702  MISS %:   0.298031   MPKI: 0.00194
PSCL3 PREFETCH  REQUESTED:          0  ISSUED:          0  USEFUL:          0  USELESS:          0
PSCL3 USEFUL LOAD PREFETCHES:          0 PREFETCH ISSUED TO LOWER LEVEL:          0  ACCURACY: -nan
PSCL3 TIMELY PREFETCHES:          0 LATE PREFETCHES: 0 DROPPED PREFETCHES: 0
PSCL3 PREFETCHES SAME FILL-ORIGIN LEVEL: 0 DIFFERENT FILL-ORIGIN LEVEL: 0

PSCL2 TOTAL     ACCESS:      32813  HIT:      29587  MISS:       3226  HIT %:    90.1685  MISS %:    9.83147   MPKI: 0.06452
PSCL2 LOAD TRANSLATION ACCESS:      32813  HIT:      29587  MISS:       3226  HIT %:    90.1685  MISS %:    9.83147   MPKI: 0.06452
PSCL2 PREFETCH  REQUESTED:          0  ISSUED:          0  USEFUL:          0  USELESS:          0
PSCL2 USEFUL LOAD PREFETCHES:          0 PREFETCH ISSUED TO LOWER LEVEL:          0  ACCURACY: -nan
PSCL2 TIMELY PREFETCHES:          0 LATE PREFETCHES: 0 DROPPED PREFETCHES: 0
PSCL2 PREFETCHES SAME FILL-ORIGIN LEVEL: 0 DIFFERENT FILL-ORIGIN LEVEL: 0

LLC TOTAL     ACCESS:    2978787  HIT:    1661082  MISS:    1317705  HIT %:    55.7637  MISS %:    44.2363   MPKI: 26.3541
LLC LOAD      ACCESS:     434366  HIT:     292931  MISS:     141435  HIT %:    67.4387  MISS %:    32.5613   MPKI: 2.8287
LLC RFO       ACCESS:     930981  HIT:     140258  MISS:     790723  HIT %:    15.0656  MISS %:    84.9344   MPKI: 15.8145
LLC PREFETCH  ACCESS:     498122  HIT:     122676  MISS:     375446  HIT %:    24.6277  MISS %:    75.3723   MPKI: 7.50892
LLC WRITEBACK ACCESS:    1096755  HIT:    1095246  MISS:       1509  HIT %:    99.8624  MISS %:   0.137588   MPKI: 0.03018
LLC LOAD TRANSLATION ACCESS:      18563  HIT:       9971  MISS:       8592  HIT %:    53.7144  MISS %:    46.2856   MPKI: 0.17184
LLC PREFETCH  REQUESTED:          0  ISSUED:          0  USEFUL:       7706  USELESS:     369228
LLC USEFUL LOAD PREFETCHES:       7706 PREFETCH ISSUED TO LOWER LEVEL:     375446  ACCURACY: 2.05249
LLC TIMELY PREFETCHES:       7706 LATE PREFETCHES: 0 DROPPED PREFETCHES: 0
LLC PREFETCHES SAME FILL-ORIGIN LEVEL: 0 DIFFERENT FILL-ORIGIN LEVEL: 0
LLC AVERAGE MISS LATENCY: 752.956 cycles
LLC RQ	ACCESS:    1383911	FORWARD:          0	MERGED:          0	TO_CACHE:    1383909
LLC WQ	ACCESS:    1096755	FORWARD:          2	MERGED:          0	TO_CACHE:    1096755
LLC PQ	ACCESS:     498122	FORWARD:          0	MERGED:          0	TO_CACHE:     498122

LLC Dense regions hint to LLC: 0

RAW hits: 895738
Loads Generated: 12379521
Loads sent to L1D: 11483783
Stores Generated: 8689727
Stores sent to L1D: 8689751
Major fault: 0 Minor fault: 14374
Allocated PAGES: 14374

stream: 
stream:times selected: 2335756
stream:pref_filled: 299742
stream:pref_useful: 99446
stream:pref_late: 29476
stream:misses: 17431
stream:misses_by_poll: 0

CS: 
CS:times selected: 2005856
CS:pref_filled: 251369
CS:pref_useful: 103711
CS:pref_late: 185184
CS:misses: 744175
CS:misses_by_poll: 894

CPLX: 
CPLX:times selected: 326064
CPLX:pref_filled: 31075
CPLX:pref_useful: 1432
CPLX:pref_late: 314
CPLX:misses: 74836
CPLX:misses_by_poll: 45

NL_L1: 
NL:times selected: 1090
NL:pref_filled: 426
NL:pref_useful: 27
NL:pref_late: 11
NL:misses: 504
NL:misses_by_poll: 0

total selections: 4668766
total_filled: 448990
total_useful: 139487
total_late: 217002
total_polluted: 939
total_misses_after_warmup: 1346342
conflicts: 2652059
Degree Incremented Times: 219
Degree Decremented Times: 89925

L1 IP Table Write Accesses: 5186871
L1 IP Table Read Accesses: 2534812
L1 RST Write Accesses: 1940755
L1 RST Read Accesses: 3881510
L1 CSPT Write Accesses: 1940755
L1 CSPT Read Accesses: 2210329
L1 RR Filter Tag Write Accesses: 853096
L1 RR Filter Tag Read Accesses: 251206626
L1 IP Table Tag Write Accesses: 8012059
L1 IP Table Tag Read Accesses: 8012059
L1 RST Tag Write Accesses: 0
L1 RST Tag Read Accesses: 17675554
L1 RR Filter Write Accesses: 0
L1 RR Filter Read Accesses: 8312091
test: 169171
L2 IP Table Read Accesses: 1636249
L2 IP Table Write Accesses: 1709541
L2 IP Table Tag Read Accesses: 991177
L2 IP Table Tag Write Accesses: 991177

DRAM Statistics
 CHANNEL 0
 RQ ROW_BUFFER_HIT:     426355  ROW_BUFFER_MISS:     889646
 DBUS_CONGESTED:    1922582
 WQ ROW_BUFFER_HIT:     205907  ROW_BUFFER_MISS:     668126  FULL:          0

 AVG_CONGESTED_CYCLE: 37
 All warmup complete: 2
Channel 0 Bank busy for read cycles: 0
Channel 0 Bank busy for write cycles: 0
Channel 0
Rank 0
0banks busy for read cycles: 31048298
0banks busy for write cycles: 33468
1banks busy for read cycles: 15768829
1banks busy for write cycles: 4509033
2banks busy for read cycles: 9546019
2banks busy for write cycles: 2619703
3banks busy for read cycles: 4010980
3banks busy for write cycles: 1897399
4banks busy for read cycles: 2582287
4banks busy for write cycles: 1650327
5banks busy for read cycles: 2253142
5banks busy for write cycles: 1598772
6banks busy for read cycles: 2473850
6banks busy for write cycles: 1742280
7banks busy for read cycles: 3753510
7banks busy for write cycles: 3182544
8banks busy for read cycles: 35734754
8banks busy for write cycles: 32758495

CPU 0 Branch Prediction Accuracy: 96.2778% MPKI: 6.17182 Average ROB Occupancy at Mispredict: 53.6466
Branch types
NOT_BRANCH: 41709094 83.4182%
BRANCH_DIRECT_JUMP: 456401 0.912802%
BRANCH_INDIRECT: 50013 0.100026%
BRANCH_CONDITIONAL: 5963707 11.9274%
BRANCH_DIRECT_CALL: 742782 1.48556%
BRANCH_INDIRECT_CALL: 167454 0.334908%
BRANCH_RETURN: 910238 1.82048%
BRANCH_OTHER: 0 0%

@sumon_overall_L1D    139487    753335    309471    448990   1683985   1695067
@Sumon_Early_by_class_L1D     34370    102690      1235        11
@Sumon_Late_by_class_L1D     28750    185173       286        11

@Sumon_Early_by_cycle_L1D    100662     20110      8659       600      1129      1341       525       490      1039      4622       149       161
@Sumon_Late_by_cycle_L1D     78240     36739     35688     30069     12838     22079       576         3         0         0         0         0
@Sumon_Early_stream_L1D     15176      9232      5358       321       268       855       267       195       370      2046       128       154
@Sumon_Early_CS_L1D     84386     10718      3190       184       813       215        40       158       629      2353         4         0
@Sumon_Early_CPLX_L1D       233        79        79        87        43       233       191       107        22       139        15         7
@Sumon_Late_stream_L1D      9099      7769      4841      2792      1537      2569       141         2         0         0         0         0
@Sumon_Late_CS_L1D     67820     28101     30758     27256     11298     19505       434         1         0         0         0         0
@Sumon_Late_CPLX_L1D        82       174        26         3         0         1         0         0         0         0         0         0
@sumon_overall_L2C     55281      3969    439200    494153    343317    343317
@Sumon_Early_by_class_L2C      2899       628       536         0
@Sumon_Late_by_class_L2C         0        18         0         0

@Sumon_Early_by_cycle_L2C      5423      6539      5488      2135      1826     11301      3008       685      3565      2746      1734     10831
@Sumon_Late_by_cycle_L2C      2906      1017        32         2         1        11         0         0         0         0         0         0
@Sumon_Early_stream_L2C         0         0         0         0         0         1        39       106        77       239       311      2126
@Sumon_Early_CS_L2C         0         1         0         0         0         0         0         4         4       105        11       503
@Sumon_Early_CPLX_L2C         0         0         0         0         0         0         9       113        23        17        24       350
@Sumon_Late_stream_L2C         0         0         0         0         0         0         0         0         0         0         0         0
@Sumon_Late_CS_L2C         0         6         4         0         1         7         0         0         0         0         0         0
@Sumon_Late_CPLX_L2C         0         0         0         0         0         0         0         0         0         0         0         0
DRAM PAGES: 1048576
Allocated PAGES: 14374
