
*** ChampSim Multicore Out-of-Order Simulator ***

Warmup Instructions: 10000000
Simulation Instructions: 50000000
Number of CPUs: 1
LLC sets: 2048
LLC ways: 16
Off-chip DRAM Size: 4096 MB Channels: 1 Width: 64-bit Data Rate: 800 MT/s
CPU 0 runs traces/clientserver/server_038.champsimtrace.xz
.xz
CPU 0 Bimodal branch predictor
BTB has LRU replacement policy
ITLB has LRU replacement policy
DTLB has LRU replacement policy
STLB has LRU replacement policy
L1I has LRU replacement policy
IP Table Entries: 256
L1D has LRU replacement policy
IP_Table L2 entries: 256
L2C has LRU replacement policy
LLC has LRU replacement policy
Heartbeat CPU 0 instructions: 10000001 cycles: 2752389 heartbeat IPC: 3.63321 cumulative IPC: 3.63321 (Simulation time: 0 hr 18 min 45 sec) 

Warmup complete CPU 0 instructions: 10000001 cycles: 2752389 (Simulation time: 0 hr 18 min 45 sec) 

Heartbeat CPU 0 instructions: 20000001 cycles: 20760047 heartbeat IPC: 0.555319 cumulative IPC: 0.555319 (Simulation time: 0 hr 35 min 29 sec) 
Heartbeat CPU 0 instructions: 30000003 cycles: 38710355 heartbeat IPC: 0.557094 cumulative IPC: 0.556205 (Simulation time: 0 hr 52 min 8 sec) 
Heartbeat CPU 0 instructions: 40000002 cycles: 56699943 heartbeat IPC: 0.555877 cumulative IPC: 0.556096 (Simulation time: 1 hr 8 min 43 sec) 
Heartbeat CPU 0 instructions: 50000003 cycles: 74647178 heartbeat IPC: 0.557189 cumulative IPC: 0.556369 (Simulation time: 1 hr 25 min 12 sec) 
Heartbeat CPU 0 instructions: 60000000 cycles: 92617555 heartbeat IPC: 0.556471 cumulative IPC: 0.556389 (Simulation time: 1 hr 41 min 3 sec) 
Finished CPU 0 instructions: 50000000 cycles: 89865170 cumulative IPC: 0.556389 (Simulation time: 1 hr 41 min 3 sec) 

ChampSim completed all CPUs

Region of Interest Statistics

CPU 0 cumulative IPC: 0.556389 instructions: 50000000 cycles: 89865170
ITLB TOTAL     ACCESS:    8847935  HIT:    8213339  MISS:     634596  HIT %:    92.8278  MISS %:    7.17225   MPKI: 12.6919
ITLB LOAD TRANSLATION ACCESS:    8847935  HIT:    8213339  MISS:     634596  HIT %:    92.8278  MISS %:    7.17225   MPKI: 12.6919
ITLB PREFETCH  REQUESTED:          0  ISSUED:          0  USEFUL:          0  USELESS:          0
ITLB USEFUL LOAD PREFETCHES:          0 PREFETCH ISSUED TO LOWER LEVEL:          0  ACCURACY: -nan
ITLB TIMELY PREFETCHES:          0 LATE PREFETCHES: 0 DROPPED PREFETCHES: 0
ITLB PREFETCHES SAME FILL-ORIGIN LEVEL: 0 DIFFERENT FILL-ORIGIN LEVEL: 0
ITLB AVERAGE MISS LATENCY: 9.05371 cycles
ITLB RQ	ACCESS:   10676670	FORWARD:          0	MERGED:    1630636	TO_CACHE:    9046034

DTLB TOTAL     ACCESS:   10914586  HIT:   10392996  MISS:     521590  HIT %:    95.2212  MISS %:    4.77883   MPKI: 10.4318
DTLB LOAD TRANSLATION ACCESS:   10914586  HIT:   10392996  MISS:     521590  HIT %:    95.2212  MISS %:    4.77883   MPKI: 10.4318
DTLB PREFETCH  REQUESTED:          0  ISSUED:          0  USEFUL:          0  USELESS:          0
DTLB USEFUL LOAD PREFETCHES:          0 PREFETCH ISSUED TO LOWER LEVEL:          0  ACCURACY: -nan
DTLB TIMELY PREFETCHES:          0 LATE PREFETCHES: 0 DROPPED PREFETCHES: 0
DTLB PREFETCHES SAME FILL-ORIGIN LEVEL: 0 DIFFERENT FILL-ORIGIN LEVEL: 0
DTLB AVERAGE MISS LATENCY: 10.2748 cycles
DTLB RQ	ACCESS:   14521440	FORWARD:          0	MERGED:    3568385	TO_CACHE:   10953055

STLB TOTAL     ACCESS:    1277488  HIT:    1271389  MISS:       6099  HIT %:    99.5226  MISS %:   0.477421   MPKI: 0.12198
STLB LOAD TRANSLATION ACCESS:    1156186  HIT:    1150087  MISS:       6099  HIT %:    99.4725  MISS %:    0.52751   MPKI: 0.12198
STLB TRANSLATION FROM L1D PREFETCHER ACCESS:     121302  HIT:     121302  MISS:          0  HIT %:        100  MISS %:          0   MPKI: 0
STLB PREFETCH  REQUESTED:          0  ISSUED:          0  USEFUL:          0  USELESS:          0
STLB USEFUL LOAD PREFETCHES:          0 PREFETCH ISSUED TO LOWER LEVEL:          0  ACCURACY: -nan
STLB TIMELY PREFETCHES:          0 LATE PREFETCHES: 0 DROPPED PREFETCHES: 0
STLB PREFETCHES SAME FILL-ORIGIN LEVEL: 0 DIFFERENT FILL-ORIGIN LEVEL: 0
STLB AVERAGE MISS LATENCY: 111.048 cycles
STLB RQ	ACCESS:    1362808	FORWARD:          0	MERGED:      85320	TO_CACHE:    1277488

STLB Hit, L1D data hit: 0
STLB Hit, L2C data hit: 0
STLB Hit, LLC data hit: 0
STLB Hit, LLC data miss: 0
STLB STLB hints to L2: 0
L1D TOTAL     ACCESS:   14623501  HIT:   14115246  MISS:     508255  HIT %:    96.5244  MISS %:     3.4756   MPKI: 10.1651
L1D LOAD      ACCESS:    8118137  HIT:    7730874  MISS:     387263  HIT %:    95.2297  MISS %:    4.77034   MPKI: 7.74526
L1D RFO       ACCESS:    6305980  HIT:    6239531  MISS:      66449  HIT %:    98.9463  MISS %:    1.05375   MPKI: 1.32898
L1D PREFETCH  ACCESS:     199384  HIT:     144841  MISS:      54543  HIT %:    72.6442  MISS %:    27.3558   MPKI: 1.09086
L1D PREFETCH  REQUESTED:     413339  ISSUED:     413322  USEFUL:      15079  USELESS:      39464
L1D USEFUL LOAD PREFETCHES:      15079 PREFETCH ISSUED TO LOWER LEVEL:      54543  ACCURACY: 27.6461
L1D TIMELY PREFETCHES:      15079 LATE PREFETCHES: 1753 DROPPED PREFETCHES: 0
L1D PREFETCHES SAME FILL-ORIGIN LEVEL: 54543 DIFFERENT FILL-ORIGIN LEVEL: 0
L1D AVERAGE MISS LATENCY: 35.9839 cycles
L1D RQ	ACCESS:   11827590	FORWARD:          0	MERGED:    3521670	TO_CACHE:    8140930
L1D WQ	ACCESS:    6426250	FORWARD:     165068	MERGED:      45740	TO_CACHE:    6380510
L1D PQ	ACCESS:     206700	FORWARD:          0	MERGED:          0	TO_CACHE:     206622

L1D UNIQUE REGIONS ACCESSED: 0
L1D REGIONS CONFLICTS: 0
L1D Cross Page Prefetch Requests: 0
L1D Same Page Prefetch Requests: 241359
L1D ROI Sum of L1D PQ occupancy: 2743276
L1D PREFETCHES PUSHED FROM L2C: 0
L1I TOTAL     ACCESS:    9645666  HIT:    5598947  MISS:    4046719  HIT %:    58.0462  MISS %:    41.9538   MPKI: 80.9344
L1I LOAD      ACCESS:    9645666  HIT:    5598947  MISS:    4046719  HIT %:    58.0462  MISS %:    41.9538   MPKI: 80.9344
L1I PREFETCH  REQUESTED:          0  ISSUED:          0  USEFUL:          0  USELESS:          0
L1I USEFUL LOAD PREFETCHES:          0 PREFETCH ISSUED TO LOWER LEVEL:          0  ACCURACY: -nan
L1I TIMELY PREFETCHES:          0 LATE PREFETCHES: 0 DROPPED PREFETCHES: 0
L1I PREFETCHES SAME FILL-ORIGIN LEVEL: 0 DIFFERENT FILL-ORIGIN LEVEL: 0
L1I AVERAGE MISS LATENCY: 14.1623 cycles
L1I RQ	ACCESS:   14765128	FORWARD:          0	MERGED:    4088458	TO_CACHE:   10676670

BTB TOTAL     ACCESS:    5367160  HIT:    4843603  MISS:     523557  HIT %:    90.2452  MISS %:    9.75482   MPKI: 10.4711
BTB BRANCH_DIRECT_JUMP	ACCESS:     541712  HIT:     529168  MISS:      12544
BTB BRANCH_INDIRECT	ACCESS:      59661  HIT:      59563  MISS:         98
BTB BRANCH_CONDITIONAL	ACCESS:    2287820  HIT:    2245521  MISS:      42299
BTB BRANCH_DIRECT_CALL	ACCESS:    1004491  HIT:     966931  MISS:      37560
BTB BRANCH_INDIRECT_CALL	ACCESS:     234493  HIT:     188817  MISS:      45676
BTB BRANCH_RETURN	ACCESS:    1238983  HIT:     853603  MISS:     385380
BTB BRANCH_OTHER ACCESS:          0  HIT:          0  MISS:          0

L2C TOTAL     ACCESS:    5099440  HIT:    4821478  MISS:     277962  HIT %:    94.5492  MISS %:    5.45083   MPKI: 5.55924
L2C LOAD      ACCESS:    4433977  HIT:    4288177  MISS:     145800  HIT %:    96.7118  MISS %:    3.28824   MPKI: 2.916
L2C DATA LOAD MPKI: 2.76704
L2C INSTRUCTION LOAD MPKI: 0.14896
L2C RFO       ACCESS:      66449  HIT:      38005  MISS:      28444  HIT %:    57.1942  MISS %:    42.8058   MPKI: 0.56888
L2C PREFETCH  ACCESS:     350845  HIT:     253835  MISS:      97010  HIT %:    72.3496  MISS %:    27.6504   MPKI: 1.9402
L2C DATA PREFETCH MPKI: 1.9402
L2C INSTRUCTION PREFETCH MPKI: 0
L2C WRITEBACK ACCESS:     239752  HIT:     238837  MISS:        915  HIT %:    99.6184  MISS %:   0.381644   MPKI: 0.0183
L2C LOAD TRANSLATION ACCESS:       8417  HIT:       2624  MISS:       5793  HIT %:     31.175  MISS %:     68.825   MPKI: 0.11586
L2C PREFETCH  REQUESTED:     314837  ISSUED:     314837  USEFUL:      35700  USELESS:      61309
L2C USEFUL LOAD PREFETCHES:      35700 PREFETCH ISSUED TO LOWER LEVEL:      97585  ACCURACY: 36.5835
L2C TIMELY PREFETCHES:      35700 LATE PREFETCHES: 575 DROPPED PREFETCHES: 0
L2C PREFETCHES SAME FILL-ORIGIN LEVEL: 79305 DIFFERENT FILL-ORIGIN LEVEL: 0
L2C AVERAGE MISS LATENCY: 52.1642 cycles
L2C RQ	ACCESS:    4508848	FORWARD:          0	MERGED:          0	TO_CACHE:    4508843
L2C WQ	ACCESS:     239752	FORWARD:          5	MERGED:          0	TO_CACHE:     239752
L2C PQ	ACCESS:     369380	FORWARD:          0	MERGED:       7249	TO_CACHE:     362131

L2C Instructions Evicting Data 6861
L2C Translations Evicting Data 5462
L2C Data Evicting Data 251567
L2C Instructions Evicting Instructions 462
L2C Translations Evicting Instructions 141
L2C Data Evicting Instructions 6773
L2C Instructions Evicting Translations 125
L2C Translations Evicting Translations 190
L2C Data Evicting Translations 5465
L2C Dense regions hint from L2: 0
PSCL5 TOTAL     ACCESS:       6099  HIT:       6099  MISS:          0  HIT %:        100  MISS %:          0   MPKI: 0
PSCL5 LOAD TRANSLATION ACCESS:       6099  HIT:       6099  MISS:          0  HIT %:        100  MISS %:          0   MPKI: 0
PSCL5 PREFETCH  REQUESTED:          0  ISSUED:          0  USEFUL:          0  USELESS:          0
PSCL5 USEFUL LOAD PREFETCHES:          0 PREFETCH ISSUED TO LOWER LEVEL:          0  ACCURACY: -nan
PSCL5 TIMELY PREFETCHES:          0 LATE PREFETCHES: 0 DROPPED PREFETCHES: 0
PSCL5 PREFETCHES SAME FILL-ORIGIN LEVEL: 0 DIFFERENT FILL-ORIGIN LEVEL: 0

PSCL4 TOTAL     ACCESS:       6022  HIT:       6019  MISS:          3  HIT %:    99.9502  MISS %:  0.0498173   MPKI: 6e-05
PSCL4 LOAD TRANSLATION ACCESS:       6022  HIT:       6019  MISS:          3  HIT %:    99.9502  MISS %:  0.0498173   MPKI: 6e-05
PSCL4 PREFETCH  REQUESTED:          0  ISSUED:          0  USEFUL:          0  USELESS:          0
PSCL4 USEFUL LOAD PREFETCHES:          0 PREFETCH ISSUED TO LOWER LEVEL:          0  ACCURACY: -nan
PSCL4 TIMELY PREFETCHES:          0 LATE PREFETCHES: 0 DROPPED PREFETCHES: 0
PSCL4 PREFETCHES SAME FILL-ORIGIN LEVEL: 0 DIFFERENT FILL-ORIGIN LEVEL: 0

PSCL3 TOTAL     ACCESS:       6068  HIT:       6038  MISS:         30  HIT %:    99.5056  MISS %:   0.494397   MPKI: 0.0006
PSCL3 LOAD TRANSLATION ACCESS:       6068  HIT:       6038  MISS:         30  HIT %:    99.5056  MISS %:   0.494397   MPKI: 0.0006
PSCL3 PREFETCH  REQUESTED:          0  ISSUED:          0  USEFUL:          0  USELESS:          0
PSCL3 USEFUL LOAD PREFETCHES:          0 PREFETCH ISSUED TO LOWER LEVEL:          0  ACCURACY: -nan
PSCL3 TIMELY PREFETCHES:          0 LATE PREFETCHES: 0 DROPPED PREFETCHES: 0
PSCL3 PREFETCHES SAME FILL-ORIGIN LEVEL: 0 DIFFERENT FILL-ORIGIN LEVEL: 0

PSCL2 TOTAL     ACCESS:       6099  HIT:       3785  MISS:       2314  HIT %:    62.0594  MISS %:    37.9406   MPKI: 0.04628
PSCL2 LOAD TRANSLATION ACCESS:       6099  HIT:       3785  MISS:       2314  HIT %:    62.0594  MISS %:    37.9406   MPKI: 0.04628
PSCL2 PREFETCH  REQUESTED:          0  ISSUED:          0  USEFUL:          0  USELESS:          0
PSCL2 USEFUL LOAD PREFETCHES:          0 PREFETCH ISSUED TO LOWER LEVEL:          0  ACCURACY: -nan
PSCL2 TIMELY PREFETCHES:          0 LATE PREFETCHES: 0 DROPPED PREFETCHES: 0
PSCL2 PREFETCHES SAME FILL-ORIGIN LEVEL: 0 DIFFERENT FILL-ORIGIN LEVEL: 0

LLC TOTAL     ACCESS:     404578  HIT:     373184  MISS:      31394  HIT %:    92.2403  MISS %:    7.75969   MPKI: 0.62788
LLC LOAD      ACCESS:     145225  HIT:     130458  MISS:      14767  HIT %:    89.8316  MISS %:    10.1684   MPKI: 0.29534
LLC RFO       ACCESS:      28443  HIT:      21918  MISS:       6525  HIT %:    77.0594  MISS %:    22.9406   MPKI: 0.1305
LLC PREFETCH  ACCESS:      97585  HIT:      88132  MISS:       9453  HIT %:    90.3131  MISS %:    9.68694   MPKI: 0.18906
LLC WRITEBACK ACCESS:     127532  HIT:     127409  MISS:        123  HIT %:    99.9036  MISS %:  0.0964464   MPKI: 0.00246
LLC LOAD TRANSLATION ACCESS:       5793  HIT:       5267  MISS:        526  HIT %:    90.9201  MISS %:    9.07992   MPKI: 0.01052
LLC PREFETCH  REQUESTED:          0  ISSUED:          0  USEFUL:        410  USELESS:       4645
LLC USEFUL LOAD PREFETCHES:        410 PREFETCH ISSUED TO LOWER LEVEL:       9453  ACCURACY: 4.33725
LLC TIMELY PREFETCHES:        410 LATE PREFETCHES: 0 DROPPED PREFETCHES: 0
LLC PREFETCHES SAME FILL-ORIGIN LEVEL: 0 DIFFERENT FILL-ORIGIN LEVEL: 0
LLC AVERAGE MISS LATENCY: 196.662 cycles
LLC RQ	ACCESS:     179462	FORWARD:          0	MERGED:          0	TO_CACHE:     179461
LLC WQ	ACCESS:     127532	FORWARD:          1	MERGED:          0	TO_CACHE:     127532
LLC PQ	ACCESS:      97585	FORWARD:          0	MERGED:          0	TO_CACHE:      97585

LLC Dense regions hint to LLC: 0

RAW hits: 723192
Loads Generated: 12550783
Loads sent to L1D: 11827590
Stores Generated: 6426241
Stores sent to L1D: 6426250
Major fault: 0 Minor fault: 4744
Allocated PAGES: 4744

stream: 
stream:times selected: 197150
stream:pref_filled: 31744
stream:pref_useful: 10249
stream:pref_late: 633
stream:misses: 62
stream:misses_by_poll: 0

CS: 
CS:times selected: 5456
CS:pref_filled: 1466
CS:pref_useful: 310
CS:pref_late: 1123
CS:misses: 1084
CS:misses_by_poll: 0

CPLX: 
CPLX:times selected: 191292
CPLX:pref_filled: 27194
CPLX:pref_useful: 5743
CPLX:pref_late: 173
CPLX:misses: 4297
CPLX:misses_by_poll: 3

NL_L1: 
NL:times selected: 4066
NL:pref_filled: 199
NL:pref_useful: 36
NL:pref_late: 1
NL:misses: 0
NL:misses_by_poll: 0

total selections: 397964
total_filled: 54543
total_useful: 15079
total_late: 1935
total_polluted: 3
total_misses_after_warmup: 410059
conflicts: 3728829
Degree Incremented Times: 0
Degree Decremented Times: 86381

L1 IP Table Write Accesses: 4246916
L1 IP Table Read Accesses: 518087
L1 RST Write Accesses: 167987
L1 RST Read Accesses: 335974
L1 CSPT Write Accesses: 167987
L1 CSPT Read Accesses: 331946
L1 RR Filter Tag Write Accesses: 206717
L1 RR Filter Tag Read Accesses: 9232355
L1 IP Table Tag Write Accesses: 8140933
L1 IP Table Tag Read Accesses: 8140933
L1 RST Tag Write Accesses: 0
L1 RST Tag Read Accesses: 1782244
L1 RR Filter Write Accesses: 0
L1 RR Filter Read Accesses: 300060
test: 69104
L2 IP Table Read Accesses: 556283
L2 IP Table Write Accesses: 741731
L2 IP Table Tag Read Accesses: 436888
L2 IP Table Tag Write Accesses: 436888

DRAM Statistics
 CHANNEL 0
 RQ ROW_BUFFER_HIT:       7834  ROW_BUFFER_MISS:      23433
 DBUS_CONGESTED:      13318
 WQ ROW_BUFFER_HIT:        566  ROW_BUFFER_MISS:       5132  FULL:          0

 AVG_CONGESTED_CYCLE: 32
 All warmup complete: 2
Channel 0 Bank busy for read cycles: 0
Channel 0 Bank busy for write cycles: 0
Channel 0
Rank 0
0banks busy for read cycles: 86195477
0banks busy for write cycles: 4198
1banks busy for read cycles: 1702569
1banks busy for write cycles: 669221
2banks busy for read cycles: 881451
2banks busy for write cycles: 104779
3banks busy for read cycles: 97324
3banks busy for write cycles: 17559
4banks busy for read cycles: 26224
4banks busy for write cycles: 10228
5banks busy for read cycles: 13986
5banks busy for write cycles: 5177
6banks busy for read cycles: 17039
6banks busy for write cycles: 2950
7banks busy for read cycles: 25601
7banks busy for write cycles: 1904
8banks busy for read cycles: 87366
8banks busy for write cycles: 2118

CPU 0 Branch Prediction Accuracy: 96.3715% MPKI: 6.52798 Average ROB Occupancy at Mispredict: 21.8097
Branch types
NOT_BRANCH: 41004141 82.0083%
BRANCH_DIRECT_JUMP: 541712 1.08342%
BRANCH_INDIRECT: 59661 0.119322%
BRANCH_CONDITIONAL: 5916196 11.8324%
BRANCH_DIRECT_CALL: 1004491 2.00898%
BRANCH_INDIRECT_CALL: 234493 0.468986%
BRANCH_RETURN: 1238983 2.47797%
BRANCH_OTHER: 0 0%

@sumon_overall_L1D     15079      1753     39464     54543    413322    413339
@Sumon_Early_by_class_L1D      8452        76      4825         0
@Sumon_Late_by_class_L1D       444      1123       109         0

@Sumon_Early_by_cycle_L1D       865       436        33         8       340      3320       562      1407      5886      1929       208        85
@Sumon_Late_by_cycle_L1D       320       353       698       215        83         8         0         0         0         0         0         0
@Sumon_Early_stream_L1D       521        92        11         5        38      1756       419       682      3720      1160        36        12
@Sumon_Early_CS_L1D        34        39         3         0         0         0         0         0         0         0         0         0
@Sumon_Early_CPLX_L1D       212       277        11         2         0      1089        91       659      2061       221       130        72
@Sumon_Late_stream_L1D        84        71       227        50         7         5         0         0         0         0         0         0
@Sumon_Late_CS_L1D       132       282       467       163        76         3         0         0         0         0         0         0
@Sumon_Late_CPLX_L1D       103         0         4         2         0         0         0         0         0         0         0         0
@sumon_overall_L2C     35700       575     61309     97010    314837    314837
@Sumon_Early_by_class_L2C       813         0       675         0
@Sumon_Late_by_class_L2C         0         0         0         0

@Sumon_Early_by_cycle_L2C      2953      3827      7317      1051      2140      7928      1175       734      1264      3160       224      3927
@Sumon_Late_by_cycle_L2C       513        59         3         0         0         0         0         0         0         0         0         0
@Sumon_Early_stream_L2C         0         0         0         0         0         0         0         4        77         6         0       726
@Sumon_Early_CS_L2C         0         0         0         0         0         0         0         0         0         0         0         0
@Sumon_Early_CPLX_L2C         0         0         0         0         0         0         0         0         8        12         1       654
@Sumon_Late_stream_L2C         0         0         0         0         0         0         0         0         0         0         0         0
@Sumon_Late_CS_L2C         0         0         0         0         0         0         0         0         0         0         0         0
@Sumon_Late_CPLX_L2C         0         0         0         0         0         0         0         0         0         0         0         0
DRAM PAGES: 1048576
Allocated PAGES: 4744
