
*** ChampSim Multicore Out-of-Order Simulator ***

Warmup Instructions: 10000000
Simulation Instructions: 50000000
Number of CPUs: 1
LLC sets: 2048
LLC ways: 16
Off-chip DRAM Size: 4096 MB Channels: 1 Width: 64-bit Data Rate: 800 MT/s
CPU 0 runs traces/clientserver/server_027.champsimtrace.xz
.xz
CPU 0 Bimodal branch predictor
BTB has LRU replacement policy
ITLB has LRU replacement policy
DTLB has LRU replacement policy
STLB has LRU replacement policy
L1I has LRU replacement policy
IP Table Entries: 256
L1D has LRU replacement policy
IP_Table L2 entries: 256
L2C has LRU replacement policy
LLC has LRU replacement policy
Heartbeat CPU 0 instructions: 10000000 cycles: 2885978 heartbeat IPC: 3.46503 cumulative IPC: 3.46503 (Simulation time: 0 hr 19 min 35 sec) 

Warmup complete CPU 0 instructions: 10000004 cycles: 2885979 (Simulation time: 0 hr 19 min 35 sec) 

Heartbeat CPU 0 instructions: 20000001 cycles: 28119969 heartbeat IPC: 0.396291 cumulative IPC: 0.396291 (Simulation time: 0 hr 37 min 47 sec) 
Heartbeat CPU 0 instructions: 30000001 cycles: 53214341 heartbeat IPC: 0.398496 cumulative IPC: 0.39739 (Simulation time: 0 hr 55 min 38 sec) 
Heartbeat CPU 0 instructions: 40000001 cycles: 78339660 heartbeat IPC: 0.398005 cumulative IPC: 0.397595 (Simulation time: 1 hr 13 min 35 sec) 
Heartbeat CPU 0 instructions: 50000000 cycles: 103423508 heartbeat IPC: 0.398663 cumulative IPC: 0.397861 (Simulation time: 1 hr 31 min 22 sec) 
Heartbeat CPU 0 instructions: 60000002 cycles: 128650656 heartbeat IPC: 0.396398 cumulative IPC: 0.397568 (Simulation time: 1 hr 46 min 29 sec) 
Finished CPU 0 instructions: 50000001 cycles: 125764683 cumulative IPC: 0.397568 (Simulation time: 1 hr 46 min 29 sec) 

ChampSim completed all CPUs

Region of Interest Statistics

CPU 0 cumulative IPC: 0.397568 instructions: 50000001 cycles: 125764683
ITLB TOTAL     ACCESS:    8424333  HIT:    7933513  MISS:     490820  HIT %:    94.1738  MISS %:    5.82622   MPKI: 9.8164
ITLB LOAD TRANSLATION ACCESS:    8424333  HIT:    7933513  MISS:     490820  HIT %:    94.1738  MISS %:    5.82622   MPKI: 9.8164
ITLB PREFETCH  REQUESTED:          0  ISSUED:          0  USEFUL:          0  USELESS:          0
ITLB USEFUL LOAD PREFETCHES:          0 PREFETCH ISSUED TO LOWER LEVEL:          0  ACCURACY: -nan
ITLB TIMELY PREFETCHES:          0 LATE PREFETCHES: 0 DROPPED PREFETCHES: 0
ITLB PREFETCHES SAME FILL-ORIGIN LEVEL: 0 DIFFERENT FILL-ORIGIN LEVEL: 0
ITLB AVERAGE MISS LATENCY: 9.0632 cycles
ITLB RQ	ACCESS:   10060375	FORWARD:          0	MERGED:    1512399	TO_CACHE:    8547976

DTLB TOTAL     ACCESS:   12626990  HIT:   12151722  MISS:     475268  HIT %:    96.2361  MISS %:    3.76391   MPKI: 9.50536
DTLB LOAD TRANSLATION ACCESS:   12626990  HIT:   12151722  MISS:     475268  HIT %:    96.2361  MISS %:    3.76391   MPKI: 9.50536
DTLB PREFETCH  REQUESTED:          0  ISSUED:          0  USEFUL:          0  USELESS:          0
DTLB USEFUL LOAD PREFETCHES:          0 PREFETCH ISSUED TO LOWER LEVEL:          0  ACCURACY: -nan
DTLB TIMELY PREFETCHES:          0 LATE PREFETCHES: 0 DROPPED PREFETCHES: 0
DTLB PREFETCHES SAME FILL-ORIGIN LEVEL: 0 DIFFERENT FILL-ORIGIN LEVEL: 0
DTLB AVERAGE MISS LATENCY: 9.40898 cycles
DTLB RQ	ACCESS:   15744802	FORWARD:          0	MERGED:    3097663	TO_CACHE:   12647139

STLB TOTAL     ACCESS:    1384064  HIT:    1381754  MISS:       2310  HIT %:    99.8331  MISS %:     0.1669   MPKI: 0.0462
STLB LOAD TRANSLATION ACCESS:     966088  HIT:     963778  MISS:       2310  HIT %:    99.7609  MISS %:   0.239109   MPKI: 0.0462
STLB TRANSLATION FROM L1D PREFETCHER ACCESS:     417976  HIT:     417976  MISS:          0  HIT %:        100  MISS %:          0   MPKI: 0
STLB PREFETCH  REQUESTED:          0  ISSUED:          0  USEFUL:          0  USELESS:          0
STLB USEFUL LOAD PREFETCHES:          0 PREFETCH ISSUED TO LOWER LEVEL:          0  ACCURACY: -nan
STLB TIMELY PREFETCHES:          0 LATE PREFETCHES: 0 DROPPED PREFETCHES: 0
STLB PREFETCHES SAME FILL-ORIGIN LEVEL: 0 DIFFERENT FILL-ORIGIN LEVEL: 0
STLB AVERAGE MISS LATENCY: 93.6567 cycles
STLB RQ	ACCESS:    1499934	FORWARD:          0	MERGED:     115870	TO_CACHE:    1384064

STLB Hit, L1D data hit: 0
STLB Hit, L2C data hit: 0
STLB Hit, LLC data hit: 0
STLB Hit, LLC data miss: 0
STLB STLB hints to L2: 0
L1D TOTAL     ACCESS:   15747486  HIT:   14590860  MISS:    1156626  HIT %:    92.6552  MISS %:    7.34483   MPKI: 23.1325
L1D LOAD      ACCESS:    8792048  HIT:    8097520  MISS:     694528  HIT %:    92.1005  MISS %:     7.8995   MPKI: 13.8906
L1D RFO       ACCESS:    6437701  HIT:    6143235  MISS:     294466  HIT %:    95.4259  MISS %:    4.57409   MPKI: 5.88932
L1D PREFETCH  ACCESS:     517737  HIT:     350105  MISS:     167632  HIT %:    67.6222  MISS %:    32.3778   MPKI: 3.35264
L1D PREFETCH  REQUESTED:    1067979  ISSUED:    1067901  USEFUL:      44663  USELESS:     122988
L1D USEFUL LOAD PREFETCHES:      44663 PREFETCH ISSUED TO LOWER LEVEL:     168138  ACCURACY: 26.5633
L1D TIMELY PREFETCHES:      44663 LATE PREFETCHES: 29381 DROPPED PREFETCHES: 0
L1D PREFETCHES SAME FILL-ORIGIN LEVEL: 168138 DIFFERENT FILL-ORIGIN LEVEL: 0
L1D AVERAGE MISS LATENCY: 28457.5 cycles
L1D RQ	ACCESS:   12113467	FORWARD:          0	MERGED:    3146680	TO_CACHE:    8852749
L1D WQ	ACCESS:    6938884	FORWARD:     114247	MERGED:      46831	TO_CACHE:    6892053
L1D PQ	ACCESS:     534055	FORWARD:          0	MERGED:          0	TO_CACHE:     533846

L1D UNIQUE REGIONS ACCESSED: 0
L1D REGIONS CONFLICTS: 0
L1D Cross Page Prefetch Requests: 0
L1D Same Page Prefetch Requests: 635831
L1D ROI Sum of L1D PQ occupancy: 7702431
L1D PREFETCHES PUSHED FROM L2C: 0
L1I TOTAL     ACCESS:    9600917  HIT:    6852355  MISS:    2748562  HIT %:    71.3719  MISS %:    28.6281   MPKI: 54.9712
L1I LOAD      ACCESS:    9600917  HIT:    6852355  MISS:    2748562  HIT %:    71.3719  MISS %:    28.6281   MPKI: 54.9712
L1I PREFETCH  REQUESTED:          0  ISSUED:          0  USEFUL:          0  USELESS:          0
L1I USEFUL LOAD PREFETCHES:          0 PREFETCH ISSUED TO LOWER LEVEL:          0  ACCURACY: -nan
L1I TIMELY PREFETCHES:          0 LATE PREFETCHES: 0 DROPPED PREFETCHES: 0
L1I PREFETCHES SAME FILL-ORIGIN LEVEL: 0 DIFFERENT FILL-ORIGIN LEVEL: 0
L1I AVERAGE MISS LATENCY: 18.7384 cycles
L1I RQ	ACCESS:   13829801	FORWARD:          0	MERGED:    3769426	TO_CACHE:   10060375

BTB TOTAL     ACCESS:    5994310  HIT:    3988077  MISS:    2006233  HIT %:     66.531  MISS %:     33.469   MPKI: 40.1247
BTB BRANCH_DIRECT_JUMP	ACCESS:     527013  HIT:     350195  MISS:     176818
BTB BRANCH_INDIRECT	ACCESS:     206168  HIT:     168860  MISS:      37308
BTB BRANCH_CONDITIONAL	ACCESS:    3044122  HIT:    2482259  MISS:     561863
BTB BRANCH_DIRECT_CALL	ACCESS:     934907  HIT:     527457  MISS:     407450
BTB BRANCH_INDIRECT_CALL	ACCESS:     173595  HIT:      94867  MISS:      78728
BTB BRANCH_RETURN	ACCESS:    1108505  HIT:     364439  MISS:     744066
BTB BRANCH_OTHER ACCESS:          0  HIT:          0  MISS:          0

L2C TOTAL     ACCESS:    5019652  HIT:    4251297  MISS:     768355  HIT %:    84.6931  MISS %:    15.3069   MPKI: 15.3671
L2C LOAD      ACCESS:    3443086  HIT:    2906750  MISS:     536336  HIT %:    84.4228  MISS %:    15.5772   MPKI: 10.7267
L2C DATA LOAD MPKI: 2.2977
L2C INSTRUCTION LOAD MPKI: 8.42902
L2C RFO       ACCESS:     293958  HIT:     207773  MISS:      86185  HIT %:    70.6812  MISS %:    29.3188   MPKI: 1.7237
L2C PREFETCH  ACCESS:     755117  HIT:     617854  MISS:     137263  HIT %:    81.8223  MISS %:    18.1777   MPKI: 2.74526
L2C DATA PREFETCH MPKI: 2.74526
L2C INSTRUCTION PREFETCH MPKI: 0
L2C WRITEBACK ACCESS:     525007  HIT:     518280  MISS:       6727  HIT %:    98.7187  MISS %:    1.28132   MPKI: 0.13454
L2C LOAD TRANSLATION ACCESS:       2484  HIT:        640  MISS:       1844  HIT %:    25.7649  MISS %:    74.2351   MPKI: 0.03688
L2C PREFETCH  REQUESTED:     601592  ISSUED:     601592  USEFUL:      25380  USELESS:     111952
L2C USEFUL LOAD PREFETCHES:      25380 PREFETCH ISSUED TO LOWER LEVEL:     140948  ACCURACY: 18.0066
L2C TIMELY PREFETCHES:      25380 LATE PREFETCHES: 3685 DROPPED PREFETCHES: 0
L2C PREFETCHES SAME FILL-ORIGIN LEVEL: 91972 DIFFERENT FILL-ORIGIN LEVEL: 0
L2C AVERAGE MISS LATENCY: 43.6031 cycles
L2C RQ	ACCESS:    3739535	FORWARD:          0	MERGED:          0	TO_CACHE:    3739529
L2C WQ	ACCESS:     525007	FORWARD:         11	MERGED:          0	TO_CACHE:     525007
L2C PQ	ACCESS:     769730	FORWARD:          0	MERGED:       5653	TO_CACHE:     764072

L2C Instructions Evicting Data 167839
L2C Translations Evicting Data 1273
L2C Data Evicting Data 173617
L2C Instructions Evicting Instructions 252974
L2C Translations Evicting Instructions 563
L2C Data Evicting Instructions 163530
L2C Instructions Evicting Translations 638
L2C Translations Evicting Translations 8
L2C Data Evicting Translations 1181
L2C Dense regions hint from L2: 0
PSCL5 TOTAL     ACCESS:       2310  HIT:       2310  MISS:          0  HIT %:        100  MISS %:          0   MPKI: 0
PSCL5 LOAD TRANSLATION ACCESS:       2310  HIT:       2310  MISS:          0  HIT %:        100  MISS %:          0   MPKI: 0
PSCL5 PREFETCH  REQUESTED:          0  ISSUED:          0  USEFUL:          0  USELESS:          0
PSCL5 USEFUL LOAD PREFETCHES:          0 PREFETCH ISSUED TO LOWER LEVEL:          0  ACCURACY: -nan
PSCL5 TIMELY PREFETCHES:          0 LATE PREFETCHES: 0 DROPPED PREFETCHES: 0
PSCL5 PREFETCHES SAME FILL-ORIGIN LEVEL: 0 DIFFERENT FILL-ORIGIN LEVEL: 0

PSCL4 TOTAL     ACCESS:       2074  HIT:       2051  MISS:         23  HIT %:     98.891  MISS %:    1.10897   MPKI: 0.00046
PSCL4 LOAD TRANSLATION ACCESS:       2074  HIT:       2051  MISS:         23  HIT %:     98.891  MISS %:    1.10897   MPKI: 0.00046
PSCL4 PREFETCH  REQUESTED:          0  ISSUED:          0  USEFUL:          0  USELESS:          0
PSCL4 USEFUL LOAD PREFETCHES:          0 PREFETCH ISSUED TO LOWER LEVEL:          0  ACCURACY: -nan
PSCL4 TIMELY PREFETCHES:          0 LATE PREFETCHES: 0 DROPPED PREFETCHES: 0
PSCL4 PREFETCHES SAME FILL-ORIGIN LEVEL: 0 DIFFERENT FILL-ORIGIN LEVEL: 0

PSCL3 TOTAL     ACCESS:       2130  HIT:       2106  MISS:         24  HIT %:    98.8732  MISS %:    1.12676   MPKI: 0.00048
PSCL3 LOAD TRANSLATION ACCESS:       2130  HIT:       2106  MISS:         24  HIT %:    98.8732  MISS %:    1.12676   MPKI: 0.00048
PSCL3 PREFETCH  REQUESTED:          0  ISSUED:          0  USEFUL:          0  USELESS:          0
PSCL3 USEFUL LOAD PREFETCHES:          0 PREFETCH ISSUED TO LOWER LEVEL:          0  ACCURACY: -nan
PSCL3 TIMELY PREFETCHES:          0 LATE PREFETCHES: 0 DROPPED PREFETCHES: 0
PSCL3 PREFETCHES SAME FILL-ORIGIN LEVEL: 0 DIFFERENT FILL-ORIGIN LEVEL: 0

PSCL2 TOTAL     ACCESS:       2310  HIT:       2175  MISS:        135  HIT %:    94.1558  MISS %:    5.84416   MPKI: 0.0027
PSCL2 LOAD TRANSLATION ACCESS:       2310  HIT:       2175  MISS:        135  HIT %:    94.1558  MISS %:    5.84416   MPKI: 0.0027
PSCL2 PREFETCH  REQUESTED:          0  ISSUED:          0  USEFUL:          0  USELESS:          0
PSCL2 USEFUL LOAD PREFETCHES:          0 PREFETCH ISSUED TO LOWER LEVEL:          0  ACCURACY: -nan
PSCL2 TIMELY PREFETCHES:          0 LATE PREFETCHES: 0 DROPPED PREFETCHES: 0
PSCL2 PREFETCHES SAME FILL-ORIGIN LEVEL: 0 DIFFERENT FILL-ORIGIN LEVEL: 0

LLC TOTAL     ACCESS:     899685  HIT:     868576  MISS:      31109  HIT %:    96.5422  MISS %:    3.45777   MPKI: 0.62218
LLC LOAD      ACCESS:     532845  HIT:     528300  MISS:       4545  HIT %:     99.147  MISS %:   0.852968   MPKI: 0.0909
LLC RFO       ACCESS:      85990  HIT:      70483  MISS:      15507  HIT %:    81.9665  MISS %:    18.0335   MPKI: 0.31014
LLC PREFETCH  ACCESS:     140948  HIT:     130123  MISS:      10825  HIT %:    92.3199  MISS %:    7.68014   MPKI: 0.2165
LLC WRITEBACK ACCESS:     138058  HIT:     137998  MISS:         60  HIT %:    99.9565  MISS %:    0.04346   MPKI: 0.0012
LLC LOAD TRANSLATION ACCESS:       1844  HIT:       1672  MISS:        172  HIT %:    90.6725  MISS %:    9.32755   MPKI: 0.00344
LLC PREFETCH  REQUESTED:          0  ISSUED:          0  USEFUL:       1021  USELESS:       6038
LLC USEFUL LOAD PREFETCHES:       1021 PREFETCH ISSUED TO LOWER LEVEL:      10825  ACCURACY: 9.43187
LLC TIMELY PREFETCHES:       1021 LATE PREFETCHES: 0 DROPPED PREFETCHES: 0
LLC PREFETCHES SAME FILL-ORIGIN LEVEL: 0 DIFFERENT FILL-ORIGIN LEVEL: 0
LLC AVERAGE MISS LATENCY: 343.841 cycles
LLC RQ	ACCESS:     620680	FORWARD:          0	MERGED:          0	TO_CACHE:     620679
LLC WQ	ACCESS:     138058	FORWARD:          1	MERGED:          0	TO_CACHE:     138058
LLC PQ	ACCESS:     140948	FORWARD:          0	MERGED:          0	TO_CACHE:     140948

LLC Dense regions hint to LLC: 0

RAW hits: 527120
Loads Generated: 12640584
Loads sent to L1D: 12113467
Stores Generated: 6938885
Stores sent to L1D: 6938884
Major fault: 0 Minor fault: 2251
Allocated PAGES: 2251

stream: 
stream:times selected: 1020116
stream:pref_filled: 118389
stream:pref_useful: 21665
stream:pref_late: 17236
stream:misses: 5305
stream:misses_by_poll: 0

CS: 
CS:times selected: 129721
CS:pref_filled: 50446
CS:pref_useful: 26517
CS:pref_late: 6246
CS:misses: 17252
CS:misses_by_poll: 12

CPLX: 
CPLX:times selected: 888348
CPLX:pref_filled: 24011
CPLX:pref_useful: 4674
CPLX:pref_late: 1349
CPLX:misses: 64924
CPLX:misses_by_poll: 4

NL_L1: 
NL:times selected: 5901
NL:pref_filled: 623
NL:pref_useful: 88
NL:pref_late: 14
NL:misses: 126
NL:misses_by_poll: 0

total selections: 2044086
total_filled: 167632
total_useful: 44663
total_late: 25053
total_polluted: 16
total_misses_after_warmup: 755231
conflicts: 3256181
Degree Incremented Times: 0
Degree Decremented Times: 205770

L1 IP Table Write Accesses: 5298903
L1 IP Table Read Accesses: 2042722
L1 RST Write Accesses: 857648
L1 RST Read Accesses: 1715296
L1 CSPT Write Accesses: 857648
L1 CSPT Read Accesses: 1603773
L1 RR Filter Tag Write Accesses: 534133
L1 RR Filter Tag Read Accesses: 38078106
L1 IP Table Tag Write Accesses: 8852751
L1 IP Table Tag Read Accesses: 8852751
L1 RST Tag Write Accesses: 0
L1 RST Tag Read Accesses: 7549905
L1 RR Filter Write Accesses: 0
L1 RR Filter Read Accesses: 1403335
test: 148624
L2 IP Table Read Accesses: 1106233
L2 IP Table Write Accesses: 1539664
L2 IP Table Tag Read Accesses: 857264
L2 IP Table Tag Write Accesses: 857264

DRAM Statistics
 CHANNEL 0
 RQ ROW_BUFFER_HIT:      16824  ROW_BUFFER_MISS:      14218
 DBUS_CONGESTED:      27279
 WQ ROW_BUFFER_HIT:        572  ROW_BUFFER_MISS:       5940  FULL:          0

 AVG_CONGESTED_CYCLE: 36
 All warmup complete: 2
Channel 0 Bank busy for read cycles: 0
Channel 0 Bank busy for write cycles: 0
Channel 0
Rank 0
0banks busy for read cycles: 123350413
0banks busy for write cycles: 1874
1banks busy for read cycles: 647511
1banks busy for write cycles: 221141
2banks busy for read cycles: 377353
2banks busy for write cycles: 88024
3banks busy for read cycles: 110041
3banks busy for write cycles: 41473
4banks busy for read cycles: 91077
4banks busy for write cycles: 31110
5banks busy for read cycles: 72270
5banks busy for write cycles: 27132
6banks busy for read cycles: 61721
6banks busy for write cycles: 26022
7banks busy for read cycles: 84484
7banks busy for write cycles: 25908
8banks busy for read cycles: 437255
8banks busy for write cycles: 69875

CPU 0 Branch Prediction Accuracy: 91.5131% MPKI: 15.508 Average ROB Occupancy at Mispredict: 17.1523
Branch types
NOT_BRANCH: 40863273 81.7265%
BRANCH_DIRECT_JUMP: 527013 1.05403%
BRANCH_INDIRECT: 206168 0.412336%
BRANCH_CONDITIONAL: 6186185 12.3724%
BRANCH_DIRECT_CALL: 934907 1.86981%
BRANCH_INDIRECT_CALL: 173595 0.34719%
BRANCH_RETURN: 1108505 2.21701%
BRANCH_OTHER: 0 0%

@sumon_overall_L1D     44663     29381    122988    167632   1067901   1067979
@Sumon_Early_by_class_L1D     17822     21797      3842        11
@Sumon_Late_by_class_L1D     16430      5973      1095        11

@Sumon_Early_by_cycle_L1D     27651      2918      1976      3492       326      1361       949      1522      1158      2319       734       257
@Sumon_Late_by_cycle_L1D     21491      1474       697        26         8         2         1         0         0         0         0         0
@Sumon_Early_stream_L1D      5833      2071      1289      2950       187       969       567       973       768      1367       603       245
@Sumon_Early_CS_L1D     20309       502       519        98        13        30         5       279         1        27         5         9
@Sumon_Early_CPLX_L1D      1236       229       140       420       118       351       270       233       230       487       125         3
@Sumon_Late_stream_L1D     16260       163         7         0         0         0         0         0         0         0         0         0
@Sumon_Late_CS_L1D      3941      1307       688        26         8         2         1         0         0         0         0         0
@Sumon_Late_CPLX_L1D      1091         3         1         0         0         0         0         0         0         0         0         0
@sumon_overall_L2C     25380      3685    111952    137263    601592    601592
@Sumon_Early_by_class_L2C      1831       129       486         0
@Sumon_Late_by_class_L2C         0         0         0         0

@Sumon_Early_by_cycle_L2C      4594      2752      1944      1473       707      2314      2609      1397       906       392      1272      5020
@Sumon_Late_by_cycle_L2C      3366       319         0         0         0         0         0         0         0         0         0         0
@Sumon_Early_stream_L2C         0         0         0         0         0         0         0         0         0        13       166      1652
@Sumon_Early_CS_L2C         0         0         0         0         0         0         0         0         0         0         0       129
@Sumon_Early_CPLX_L2C         0         0         0         0         0         0         0         0         0         2        30       454
@Sumon_Late_stream_L2C         0         0         0         0         0         0         0         0         0         0         0         0
@Sumon_Late_CS_L2C         0         0         0         0         0         0         0         0         0         0         0         0
@Sumon_Late_CPLX_L2C         0         0         0         0         0         0         0         0         0         0         0         0
DRAM PAGES: 1048576
Allocated PAGES: 2251
