
*** ChampSim Multicore Out-of-Order Simulator ***

Warmup Instructions: 10000000
Simulation Instructions: 50000000
Number of CPUs: 1
LLC sets: 2048
LLC ways: 16
Off-chip DRAM Size: 4096 MB Channels: 1 Width: 64-bit Data Rate: 800 MT/s
CPU 0 runs traces/clientserver/server_026.champsimtrace.xz
.xz
CPU 0 Bimodal branch predictor
BTB has LRU replacement policy
ITLB has LRU replacement policy
DTLB has LRU replacement policy
STLB has LRU replacement policy
L1I has LRU replacement policy
IP Table Entries: 256
L1D has LRU replacement policy
IP_Table L2 entries: 256
L2C has LRU replacement policy
LLC has LRU replacement policy
Heartbeat CPU 0 instructions: 10000000 cycles: 2884961 heartbeat IPC: 3.46625 cumulative IPC: 3.46625 (Simulation time: 0 hr 19 min 14 sec) 

Warmup complete CPU 0 instructions: 10000001 cycles: 2884962 (Simulation time: 0 hr 19 min 14 sec) 

Heartbeat CPU 0 instructions: 20000002 cycles: 28087693 heartbeat IPC: 0.396782 cumulative IPC: 0.396782 (Simulation time: 0 hr 37 min 25 sec) 
Heartbeat CPU 0 instructions: 30000000 cycles: 53208819 heartbeat IPC: 0.398071 cumulative IPC: 0.397426 (Simulation time: 0 hr 55 min 8 sec) 
Heartbeat CPU 0 instructions: 40000002 cycles: 78362568 heartbeat IPC: 0.397555 cumulative IPC: 0.397469 (Simulation time: 1 hr 13 min 12 sec) 
Heartbeat CPU 0 instructions: 50000000 cycles: 103380620 heartbeat IPC: 0.399711 cumulative IPC: 0.398027 (Simulation time: 1 hr 30 min 58 sec) 
*** Reached end of trace for Core: 0 Repeating trace: traces/clientserver/server_026.champsimtrace.xz
Heartbeat CPU 0 instructions: 60000000 cycles: 128623917 heartbeat IPC: 0.396145 cumulative IPC: 0.397649 (Simulation time: 1 hr 46 min 18 sec) 
Finished CPU 0 instructions: 50000001 cycles: 125738963 cumulative IPC: 0.397649 (Simulation time: 1 hr 46 min 18 sec) 

ChampSim completed all CPUs

Region of Interest Statistics

CPU 0 cumulative IPC: 0.397649 instructions: 50000001 cycles: 125738963
ITLB TOTAL     ACCESS:    8444602  HIT:    7957455  MISS:     487147  HIT %:    94.2313  MISS %:    5.76874   MPKI: 9.74294
ITLB LOAD TRANSLATION ACCESS:    8444602  HIT:    7957455  MISS:     487147  HIT %:    94.2313  MISS %:    5.76874   MPKI: 9.74294
ITLB PREFETCH  REQUESTED:          0  ISSUED:          0  USEFUL:          0  USELESS:          0
ITLB USEFUL LOAD PREFETCHES:          0 PREFETCH ISSUED TO LOWER LEVEL:          0  ACCURACY: -nan
ITLB TIMELY PREFETCHES:          0 LATE PREFETCHES: 0 DROPPED PREFETCHES: 0
ITLB PREFETCHES SAME FILL-ORIGIN LEVEL: 0 DIFFERENT FILL-ORIGIN LEVEL: 0
ITLB AVERAGE MISS LATENCY: 9.06724 cycles
ITLB RQ	ACCESS:   10072301	FORWARD:          0	MERGED:    1504164	TO_CACHE:    8568137

DTLB TOTAL     ACCESS:   12581591  HIT:   12104587  MISS:     477004  HIT %:    96.2087  MISS %:    3.79129   MPKI: 9.54008
DTLB LOAD TRANSLATION ACCESS:   12581591  HIT:   12104587  MISS:     477004  HIT %:    96.2087  MISS %:    3.79129   MPKI: 9.54008
DTLB PREFETCH  REQUESTED:          0  ISSUED:          0  USEFUL:          0  USELESS:          0
DTLB USEFUL LOAD PREFETCHES:          0 PREFETCH ISSUED TO LOWER LEVEL:          0  ACCURACY: -nan
DTLB TIMELY PREFETCHES:          0 LATE PREFETCHES: 0 DROPPED PREFETCHES: 0
DTLB PREFETCHES SAME FILL-ORIGIN LEVEL: 0 DIFFERENT FILL-ORIGIN LEVEL: 0
DTLB AVERAGE MISS LATENCY: 9.40395 cycles
DTLB RQ	ACCESS:   15691524	FORWARD:          0	MERGED:    3089567	TO_CACHE:   12601957

STLB TOTAL     ACCESS:    1399540  HIT:    1397304  MISS:       2236  HIT %:    99.8402  MISS %:   0.159767   MPKI: 0.04472
STLB LOAD TRANSLATION ACCESS:     964151  HIT:     961915  MISS:       2236  HIT %:    99.7681  MISS %:   0.231914   MPKI: 0.04472
STLB TRANSLATION FROM L1D PREFETCHER ACCESS:     435389  HIT:     435389  MISS:          0  HIT %:        100  MISS %:          0   MPKI: 0
STLB PREFETCH  REQUESTED:          0  ISSUED:          0  USEFUL:          0  USELESS:          0
STLB USEFUL LOAD PREFETCHES:          0 PREFETCH ISSUED TO LOWER LEVEL:          0  ACCURACY: -nan
STLB TIMELY PREFETCHES:          0 LATE PREFETCHES: 0 DROPPED PREFETCHES: 0
STLB PREFETCHES SAME FILL-ORIGIN LEVEL: 0 DIFFERENT FILL-ORIGIN LEVEL: 0
STLB AVERAGE MISS LATENCY: 96.2947 cycles
STLB RQ	ACCESS:    1526333	FORWARD:          0	MERGED:     126793	TO_CACHE:    1399540

STLB Hit, L1D data hit: 0
STLB Hit, L2C data hit: 0
STLB Hit, LLC data hit: 0
STLB Hit, LLC data miss: 0
STLB STLB hints to L2: 0
L1D TOTAL     ACCESS:   15686461  HIT:   14489538  MISS:    1196923  HIT %:    92.3697  MISS %:    7.63029   MPKI: 23.9385
L1D LOAD      ACCESS:    8754041  HIT:    8052972  MISS:     701069  HIT %:    91.9915  MISS %:    8.00852   MPKI: 14.0214
L1D RFO       ACCESS:    6388534  HIT:    6091485  MISS:     297049  HIT %:    95.3503  MISS %:    4.64972   MPKI: 5.94098
L1D PREFETCH  ACCESS:     543886  HIT:     345081  MISS:     198805  HIT %:    63.4473  MISS %:    36.5527   MPKI: 3.9761
L1D PREFETCH  REQUESTED:    1124657  ISSUED:    1124604  USEFUL:      54613  USELESS:     144177
L1D USEFUL LOAD PREFETCHES:      54613 PREFETCH ISSUED TO LOWER LEVEL:     199274  ACCURACY: 27.406
L1D TIMELY PREFETCHES:      54613 LATE PREFETCHES: 51965 DROPPED PREFETCHES: 0
L1D PREFETCHES SAME FILL-ORIGIN LEVEL: 199274 DIFFERENT FILL-ORIGIN LEVEL: 0
L1D AVERAGE MISS LATENCY: 25850.2 cycles
L1D RQ	ACCESS:   12102481	FORWARD:          0	MERGED:    3150780	TO_CACHE:    8838467
L1D WQ	ACCESS:    6899106	FORWARD:     113474	MERGED:      46049	TO_CACHE:    6853057
L1D PQ	ACCESS:     562422	FORWARD:          0	MERGED:          0	TO_CACHE:     562182

L1D UNIQUE REGIONS ACCESSED: 0
L1D REGIONS CONFLICTS: 0
L1D Cross Page Prefetch Requests: 0
L1D Same Page Prefetch Requests: 667490
L1D ROI Sum of L1D PQ occupancy: 8057749
L1D PREFETCHES PUSHED FROM L2C: 0
L1I TOTAL     ACCESS:    9611058  HIT:    6876547  MISS:    2734511  HIT %:    71.5483  MISS %:    28.4517   MPKI: 54.6902
L1I LOAD      ACCESS:    9611058  HIT:    6876547  MISS:    2734511  HIT %:    71.5483  MISS %:    28.4517   MPKI: 54.6902
L1I PREFETCH  REQUESTED:          0  ISSUED:          0  USEFUL:          0  USELESS:          0
L1I USEFUL LOAD PREFETCHES:          0 PREFETCH ISSUED TO LOWER LEVEL:          0  ACCURACY: -nan
L1I TIMELY PREFETCHES:          0 LATE PREFETCHES: 0 DROPPED PREFETCHES: 0
L1I PREFETCHES SAME FILL-ORIGIN LEVEL: 0 DIFFERENT FILL-ORIGIN LEVEL: 0
L1I AVERAGE MISS LATENCY: 18.9412 cycles
L1I RQ	ACCESS:   13815598	FORWARD:          0	MERGED:    3743297	TO_CACHE:   10072301

BTB TOTAL     ACCESS:    5982230  HIT:    3991090  MISS:    1991140  HIT %:    66.7158  MISS %:    33.2842   MPKI: 39.8228
BTB BRANCH_DIRECT_JUMP	ACCESS:     522633  HIT:     348042  MISS:     174591
BTB BRANCH_INDIRECT	ACCESS:     204723  HIT:     167232  MISS:      37491
BTB BRANCH_CONDITIONAL	ACCESS:    3049093  HIT:    2491585  MISS:     557508
BTB BRANCH_DIRECT_CALL	ACCESS:     929734  HIT:     525672  MISS:     404062
BTB BRANCH_INDIRECT_CALL	ACCESS:     173167  HIT:      95072  MISS:      78095
BTB BRANCH_RETURN	ACCESS:    1102880  HIT:     363487  MISS:     739393
BTB BRANCH_OTHER ACCESS:          0  HIT:          0  MISS:          0

L2C TOTAL     ACCESS:    5049890  HIT:    4219395  MISS:     830495  HIT %:    83.5542  MISS %:    16.4458   MPKI: 16.6099
L2C LOAD      ACCESS:    3435572  HIT:    2874010  MISS:     561562  HIT %:    83.6545  MISS %:    16.3455   MPKI: 11.2312
L2C DATA LOAD MPKI: 2.49094
L2C INSTRUCTION LOAD MPKI: 8.7403
L2C RFO       ACCESS:     296580  HIT:     196142  MISS:     100438  HIT %:    66.1346  MISS %:    33.8654   MPKI: 2.00876
L2C PREFETCH  ACCESS:     786649  HIT:     626832  MISS:     159817  HIT %:    79.6838  MISS %:    20.3162   MPKI: 3.19634
L2C DATA PREFETCH MPKI: 3.19634
L2C INSTRUCTION PREFETCH MPKI: 0
L2C WRITEBACK ACCESS:     528702  HIT:     521663  MISS:       7039  HIT %:    98.6686  MISS %:    1.33137   MPKI: 0.14078
L2C LOAD TRANSLATION ACCESS:       2387  HIT:        748  MISS:       1639  HIT %:    31.3364  MISS %:    68.6636   MPKI: 0.03278
L2C PREFETCH  REQUESTED:     603771  ISSUED:     603771  USEFUL:      31269  USELESS:     128505
L2C USEFUL LOAD PREFETCHES:      31269 PREFETCH ISSUED TO LOWER LEVEL:     162569  ACCURACY: 19.2343
L2C TIMELY PREFETCHES:      31269 LATE PREFETCHES: 2752 DROPPED PREFETCHES: 0
L2C PREFETCHES SAME FILL-ORIGIN LEVEL: 98613 DIFFERENT FILL-ORIGIN LEVEL: 0
L2C AVERAGE MISS LATENCY: 42.9674 cycles
L2C RQ	ACCESS:    3734547	FORWARD:          0	MERGED:          0	TO_CACHE:    3734539
L2C WQ	ACCESS:     528702	FORWARD:         11	MERGED:          0	TO_CACHE:     528702
L2C PQ	ACCESS:     803045	FORWARD:          0	MERGED:       5822	TO_CACHE:     797220

L2C Instructions Evicting Data 187373
L2C Translations Evicting Data 1199
L2C Data Evicting Data 201120
L2C Instructions Evicting Instructions 249149
L2C Translations Evicting Instructions 398
L2C Data Evicting Instructions 182563
L2C Instructions Evicting Translations 492
L2C Translations Evicting Translations 42
L2C Data Evicting Translations 1104
L2C Dense regions hint from L2: 0
PSCL5 TOTAL     ACCESS:       2236  HIT:       2236  MISS:          0  HIT %:        100  MISS %:          0   MPKI: 0
PSCL5 LOAD TRANSLATION ACCESS:       2236  HIT:       2236  MISS:          0  HIT %:        100  MISS %:          0   MPKI: 0
PSCL5 PREFETCH  REQUESTED:          0  ISSUED:          0  USEFUL:          0  USELESS:          0
PSCL5 USEFUL LOAD PREFETCHES:          0 PREFETCH ISSUED TO LOWER LEVEL:          0  ACCURACY: -nan
PSCL5 TIMELY PREFETCHES:          0 LATE PREFETCHES: 0 DROPPED PREFETCHES: 0
PSCL5 PREFETCHES SAME FILL-ORIGIN LEVEL: 0 DIFFERENT FILL-ORIGIN LEVEL: 0

PSCL4 TOTAL     ACCESS:       2081  HIT:       2069  MISS:         12  HIT %:    99.4234  MISS %:   0.576646   MPKI: 0.00024
PSCL4 LOAD TRANSLATION ACCESS:       2081  HIT:       2069  MISS:         12  HIT %:    99.4234  MISS %:   0.576646   MPKI: 0.00024
PSCL4 PREFETCH  REQUESTED:          0  ISSUED:          0  USEFUL:          0  USELESS:          0
PSCL4 USEFUL LOAD PREFETCHES:          0 PREFETCH ISSUED TO LOWER LEVEL:          0  ACCURACY: -nan
PSCL4 TIMELY PREFETCHES:          0 LATE PREFETCHES: 0 DROPPED PREFETCHES: 0
PSCL4 PREFETCHES SAME FILL-ORIGIN LEVEL: 0 DIFFERENT FILL-ORIGIN LEVEL: 0

PSCL3 TOTAL     ACCESS:       2120  HIT:       2107  MISS:         13  HIT %:    99.3868  MISS %:   0.613208   MPKI: 0.00026
PSCL3 LOAD TRANSLATION ACCESS:       2120  HIT:       2107  MISS:         13  HIT %:    99.3868  MISS %:   0.613208   MPKI: 0.00026
PSCL3 PREFETCH  REQUESTED:          0  ISSUED:          0  USEFUL:          0  USELESS:          0
PSCL3 USEFUL LOAD PREFETCHES:          0 PREFETCH ISSUED TO LOWER LEVEL:          0  ACCURACY: -nan
PSCL3 TIMELY PREFETCHES:          0 LATE PREFETCHES: 0 DROPPED PREFETCHES: 0
PSCL3 PREFETCHES SAME FILL-ORIGIN LEVEL: 0 DIFFERENT FILL-ORIGIN LEVEL: 0

PSCL2 TOTAL     ACCESS:       2236  HIT:       2101  MISS:        135  HIT %:    93.9624  MISS %:    6.03757   MPKI: 0.0027
PSCL2 LOAD TRANSLATION ACCESS:       2236  HIT:       2101  MISS:        135  HIT %:    93.9624  MISS %:    6.03757   MPKI: 0.0027
PSCL2 PREFETCH  REQUESTED:          0  ISSUED:          0  USEFUL:          0  USELESS:          0
PSCL2 USEFUL LOAD PREFETCHES:          0 PREFETCH ISSUED TO LOWER LEVEL:          0  ACCURACY: -nan
PSCL2 TIMELY PREFETCHES:          0 LATE PREFETCHES: 0 DROPPED PREFETCHES: 0
PSCL2 PREFETCHES SAME FILL-ORIGIN LEVEL: 0 DIFFERENT FILL-ORIGIN LEVEL: 0

LLC TOTAL     ACCESS:     985439  HIT:     953081  MISS:      32358  HIT %:    96.7164  MISS %:    3.28361   MPKI: 0.64716
LLC LOAD      ACCESS:     558933  HIT:     553867  MISS:       5066  HIT %:    99.0936  MISS %:    0.90637   MPKI: 0.10132
LLC RFO       ACCESS:     100314  HIT:      84762  MISS:      15552  HIT %:    84.4967  MISS %:    15.5033   MPKI: 0.31104
LLC PREFETCH  ACCESS:     162569  HIT:     151099  MISS:      11470  HIT %:    92.9445  MISS %:    7.05547   MPKI: 0.2294
LLC WRITEBACK ACCESS:     161984  HIT:     161901  MISS:         83  HIT %:    99.9488  MISS %:  0.0512396   MPKI: 0.00166
LLC LOAD TRANSLATION ACCESS:       1639  HIT:       1452  MISS:        187  HIT %:    88.5906  MISS %:    11.4094   MPKI: 0.00374
LLC PREFETCH  REQUESTED:          0  ISSUED:          0  USEFUL:        943  USELESS:       6370
LLC USEFUL LOAD PREFETCHES:        943 PREFETCH ISSUED TO LOWER LEVEL:      11470  ACCURACY: 8.22145
LLC TIMELY PREFETCHES:        943 LATE PREFETCHES: 0 DROPPED PREFETCHES: 0
LLC PREFETCHES SAME FILL-ORIGIN LEVEL: 0 DIFFERENT FILL-ORIGIN LEVEL: 0
LLC AVERAGE MISS LATENCY: 340.897 cycles
LLC RQ	ACCESS:     660887	FORWARD:          0	MERGED:          0	TO_CACHE:     660886
LLC WQ	ACCESS:     161984	FORWARD:          1	MERGED:          0	TO_CACHE:     161984
LLC PQ	ACCESS:     162569	FORWARD:          0	MERGED:          0	TO_CACHE:     162569

LLC Dense regions hint to LLC: 0

RAW hits: 515022
Loads Generated: 12617505
Loads sent to L1D: 12102481
Stores Generated: 6899109
Stores sent to L1D: 6899106
Major fault: 0 Minor fault: 2264
Allocated PAGES: 2264

stream: 
stream:times selected: 1047906
stream:pref_filled: 139750
stream:pref_useful: 23648
stream:pref_late: 37256
stream:misses: 6724
stream:misses_by_poll: 0

CS: 
CS:times selected: 140483
CS:pref_filled: 63241
CS:pref_useful: 37987
CS:pref_late: 7768
CS:misses: 20449
CS:misses_by_poll: 8

CPLX: 
CPLX:times selected: 905657
CPLX:pref_filled: 25034
CPLX:pref_useful: 4674
CPLX:pref_late: 2074
CPLX:misses: 91540
CPLX:misses_by_poll: 3

NL_L1: 
NL:times selected: 5883
NL:pref_filled: 549
NL:pref_useful: 71
NL:pref_late: 24
NL:misses: 341
NL:misses_by_poll: 0

total selections: 2099929
total_filled: 198805
total_useful: 54613
total_late: 47296
total_polluted: 11
total_misses_after_warmup: 785493
conflicts: 3241912
Degree Incremented Times: 0
Degree Decremented Times: 124074

L1 IP Table Write Accesses: 5302309
L1 IP Table Read Accesses: 2060397
L1 RST Write Accesses: 884849
L1 RST Read Accesses: 1769698
L1 CSPT Write Accesses: 884849
L1 CSPT Read Accesses: 1648325
L1 RR Filter Tag Write Accesses: 562475
L1 RR Filter Tag Read Accesses: 40269687
L1 IP Table Tag Write Accesses: 8838465
L1 IP Table Tag Read Accesses: 8838465
L1 RST Tag Write Accesses: 0
L1 RST Tag Read Accesses: 7583412
L1 RR Filter Write Accesses: 0
L1 RR Filter Read Accesses: 1475267
test: 146176
L2 IP Table Read Accesses: 1178323
L2 IP Table Write Accesses: 1612119
L2 IP Table Tag Read Accesses: 894728
L2 IP Table Tag Write Accesses: 894728

DRAM Statistics
 CHANNEL 0
 RQ ROW_BUFFER_HIT:      17422  ROW_BUFFER_MISS:      14846
 DBUS_CONGESTED:      28433
 WQ ROW_BUFFER_HIT:        592  ROW_BUFFER_MISS:       6169  FULL:          0

 AVG_CONGESTED_CYCLE: 36
 All warmup complete: 2
Channel 0 Bank busy for read cycles: 0
Channel 0 Bank busy for write cycles: 0
Channel 0
Rank 0
0banks busy for read cycles: 123230795
0banks busy for write cycles: 1947
1banks busy for read cycles: 670499
1banks busy for write cycles: 231280
2banks busy for read cycles: 401022
2banks busy for write cycles: 83918
3banks busy for read cycles: 116261
3banks busy for write cycles: 42565
4banks busy for read cycles: 98412
4banks busy for write cycles: 30462
5banks busy for read cycles: 72832
5banks busy for write cycles: 27874
6banks busy for read cycles: 64099
6banks busy for write cycles: 28736
7banks busy for read cycles: 86040
7banks busy for write cycles: 26935
8banks busy for read cycles: 452725
8banks busy for write cycles: 72562

CPU 0 Branch Prediction Accuracy: 91.6417% MPKI: 15.2922 Average ROB Occupancy at Mispredict: 17.3031
Branch types
NOT_BRANCH: 40851762 81.7035%
BRANCH_DIRECT_JUMP: 522633 1.04527%
BRANCH_INDIRECT: 204723 0.409446%
BRANCH_CONDITIONAL: 6214815 12.4296%
BRANCH_DIRECT_CALL: 929734 1.85947%
BRANCH_INDIRECT_CALL: 173167 0.346334%
BRANCH_RETURN: 1102880 2.20576%
BRANCH_OTHER: 0 0%

@sumon_overall_L1D     54613     51965    144177    198805   1124604   1124657
@Sumon_Early_by_class_L1D     18591     31761      3099         6
@Sumon_Late_by_class_L1D     36297      7492      1658         6

@Sumon_Early_by_cycle_L1D     37247      2940      1914      3826       255      1236       911      1483      1158      2562       753       328
@Sumon_Late_by_cycle_L1D     43079      1639       834        47         7         2         0         0         0         0         0         0
@Sumon_Early_stream_L1D      6244      1970      1212      3261       183       886       571       931       801      1688       593       251
@Sumon_Early_CS_L1D     30077       657       528        53        16        30         7       270         7        34        12        70
@Sumon_Early_CPLX_L1D       709       218       145       480        39       315       225       267       218       333       143         7
@Sumon_Late_stream_L1D     36136       149        12         0         0         0         0         0         0         0         0         0
@Sumon_Late_CS_L1D      5133      1483       820        47         7         2         0         0         0         0         0         0
@Sumon_Late_CPLX_L1D      1655         2         1         0         0         0         0         0         0         0         0         0
@sumon_overall_L2C     31269      2752    128505    159817    603771    603771
@Sumon_Early_by_class_L2C      2177       214       378         0
@Sumon_Late_by_class_L2C         0         0         0         0

@Sumon_Early_by_cycle_L2C      5184      2705      2470      2045       872      3896      2813      1874      1054      1635      1101      5620
@Sumon_Late_by_cycle_L2C      2415       337         0         0         0         0         0         0         0         0         0         0
@Sumon_Early_stream_L2C         0         0         0         0         0         0         0         0         0         9       396      1772
@Sumon_Early_CS_L2C         0         0         0         0         0         0         0         0         0         0         1       213
@Sumon_Early_CPLX_L2C         0         0         0         0         0         0         0         0         0         1        30       347
@Sumon_Late_stream_L2C         0         0         0         0         0         0         0         0         0         0         0         0
@Sumon_Late_CS_L2C         0         0         0         0         0         0         0         0         0         0         0         0
@Sumon_Late_CPLX_L2C         0         0         0         0         0         0         0         0         0         0         0         0
DRAM PAGES: 1048576
Allocated PAGES: 2264
