
*** ChampSim Multicore Out-of-Order Simulator ***

Warmup Instructions: 1000000
Simulation Instructions: 5000000
Number of CPUs: 1
LLC sets: 2048
LLC ways: 16
Off-chip DRAM Size: 4096 MB Channels: 1 Width: 64-bit Data Rate: 6400 MT/s
CPU 0 runs dpc3_traces/600.perlbench_s-570B.champsimtrace.xz
.xz
CPU 0 Bimodal branch predictor
BTB has LRU replacement policy
ITLB has LRU replacement policy
DTLB has LRU replacement policy
STLB has LRU replacement policy
L1I has LRU replacement policy
IP Table Entries: 256
L1D has LRU replacement policy
IP_Table L2 entries: 256
L2C has LRU replacement policy
LLC has LRU replacement policy
earlytime: 55 count_useful: 1
earlytime: 88 count_useful: 1
earlytime: 100 count_useful: 2
earlytime: 215 count_useful: 3
earlytime: 1041 count_useful: 4
earlytime: 1729 count_useful: 5
earlytime: 2862 count_useful: 6
earlytime: 2670 count_useful: 7
earlytime: 5892 count_useful: 2
earlytime: 10115 count_useful: 8
earlytime: 15865 count_useful: 9
earlytime: 15916 count_useful: 10
earlytime: 32135 count_useful: 11
earlytime: 43842 count_useful: 3
earlytime: 44187 count_useful: 4
earlytime: 3 count_useful: 5
earlytime: 0 count_useful: 6
earlytime: 43858 count_useful: 7
earlytime: 44142 count_useful: 8
earlytime: 13 count_useful: 12
earlytime: 44230 count_useful: 9
earlytime: 12 count_useful: 13
earlytime: 44285 count_useful: 10
earlytime: 44236 count_useful: 11
earlytime: 5 count_useful: 12
earlytime: 86 count_useful: 14
earlytime: 117 count_useful: 13
earlytime: 179 count_useful: 14
earlytime: 44342 count_useful: 15
earlytime: 44266 count_useful: 15
earlytime: 44162 count_useful: 16
earlytime: 43899 count_useful: 16
earlytime: 8122 count_useful: 17
earlytime: 24514 count_useful: 18
earlytime: 40748 count_useful: 19
earlytime: 56809 count_useful: 20
earlytime: 72772 count_useful: 21
earlytime: 88653 count_useful: 22
earlytime: 97166 count_useful: 23
earlytime: 97236 count_useful: 24
earlytime: 97145 count_useful: 25
earlytime: 97753 count_useful: 26
earlytime: 98280 count_useful: 27
earlytime: 98868 count_useful: 28
earlytime: 98155 count_useful: 29
earlytime: 97633 count_useful: 30
earlytime: 98214 count_useful: 31

Warmup complete CPU 0 instructions: 1000001 cycles: 282541 (Simulation time: 0 hr 0 min 7 sec) 

earlytime: 160889 count_useful: 1
earlytime: 230187 count_useful: 2
earlytime: 299219 count_useful: 3
earlytime: 368679 count_useful: 4
earlytime: 654570 count_useful: 1
earlytime: 439740 count_useful: 5
earlytime: 506110 count_useful: 6
earlytime: 511579 count_useful: 7
earlytime: 512265 count_useful: 8
earlytime: 513342 count_useful: 9
earlytime: 1068431 count_useful: 2
earlytime: 1069386 count_useful: 10
earlytime: 1070650 count_useful: 11
earlytime: 1071642 count_useful: 12
earlytime: 1073747 count_useful: 3
earlytime: 1076609 count_useful: 13
earlytime: 5442 count_useful: 14
earlytime: 3270 count_useful: 4
earlytime: 4440 count_useful: 15
earlytime: 25 count_useful: 16
earlytime: 624 count_useful: 5
earlytime: 760 count_useful: 17
earlytime: 1172 count_useful: 18
earlytime: 1283 count_useful: 19
earlytime: 6930 count_useful: 20
earlytime: 3801 count_useful: 21
earlytime: 1170029 count_useful: 6
earlytime: 9061 count_useful: 22
earlytime: 9230 count_useful: 23
earlytime: 151 count_useful: 24
earlytime: 1258 count_useful: 25
earlytime: 1134084 count_useful: 26
earlytime: 67934 count_useful: 27
earlytime: 7455 count_useful: 28
earlytime: 10154 count_useful: 29
earlytime: 98 count_useful: 30
earlytime: 10296 count_useful: 31
earlytime: 10350 count_useful: 32
earlytime: 34269 count_useful: 7
earlytime: 19525 count_useful: 33
earlytime: 31248 count_useful: 34
earlytime: 349 count_useful: 35
earlytime: 351 count_useful: 36
earlytime: 834 count_useful: 37
earlytime: 1315 count_useful: 38
earlytime: 1312 count_useful: 39
earlytime: 1312 count_useful: 40
earlytime: 3947 count_useful: 41
earlytime: 1312 count_useful: 42
earlytime: 1312 count_useful: 43
earlytime: 1312 count_useful: 44
earlytime: 1312 count_useful: 45
earlytime: 1312 count_useful: 46
earlytime: 1312 count_useful: 47
earlytime: 1312 count_useful: 48
earlytime: 1312 count_useful: 49
earlytime: 1312 count_useful: 50
earlytime: 1312 count_useful: 51
earlytime: 1312 count_useful: 52
earlytime: 1788 count_useful: 53
earlytime: 2266 count_useful: 54
earlytime: 2749 count_useful: 55
earlytime: 2752 count_useful: 56
earlytime: 2752 count_useful: 57
earlytime: 2752 count_useful: 58
earlytime: 2752 count_useful: 59
earlytime: 2755 count_useful: 60
earlytime: 2752 count_useful: 61
earlytime: 2752 count_useful: 62
earlytime: 2752 count_useful: 63
earlytime: 179 count_useful: 64
earlytime: 527 count_useful: 65
earlytime: 961 count_useful: 66
earlytime: 1181 count_useful: 67
earlytime: 54054 count_useful: 68
earlytime: 61 count_useful: 69
earlytime: 438 count_useful: 70
earlytime: 653 count_useful: 71
earlytime: 1131 count_useful: 72
earlytime: 1607 count_useful: 73
earlytime: 2090 count_useful: 74
earlytime: 2285 count_useful: 75
earlytime: 2584 count_useful: 76
earlytime: 2752 count_useful: 77
earlytime: 2752 count_useful: 78
earlytime: 2752 count_useful: 79
earlytime: 2752 count_useful: 80
earlytime: 2752 count_useful: 81
earlytime: 2752 count_useful: 82
earlytime: 2752 count_useful: 83
earlytime: 2752 count_useful: 84
earlytime: 2752 count_useful: 85
earlytime: 2752 count_useful: 86
earlytime: 2752 count_useful: 87
earlytime: 2752 count_useful: 88
earlytime: 2752 count_useful: 89
earlytime: 2752 count_useful: 90
earlytime: 2752 count_useful: 91
earlytime: 2752 count_useful: 92
earlytime: 244 count_useful: 93
earlytime: 1225372 count_useful: 94
earlytime: 1209591 count_useful: 95
earlytime: 100 count_useful: 96
earlytime: 2015 count_useful: 97
earlytime: 2493 count_useful: 98
earlytime: 2852 count_useful: 99
earlytime: 2852 count_useful: 100
earlytime: 2852 count_useful: 101
earlytime: 2852 count_useful: 102
earlytime: 2852 count_useful: 103
earlytime: 2852 count_useful: 104
earlytime: 2857 count_useful: 105
earlytime: 2852 count_useful: 106
earlytime: 76041 count_useful: 107
earlytime: 109006 count_useful: 108
earlytime: 112921 count_useful: 109
earlytime: 113779 count_useful: 110
earlytime: 108982 count_useful: 111
earlytime: 2 count_useful: 112
earlytime: 2656 count_useful: 113
earlytime: 3177 count_useful: 114
earlytime: 61 count_useful: 115
earlytime: 117049 count_useful: 116
earlytime: 1229 count_useful: 117
earlytime: 455 count_useful: 118
earlytime: 55 count_useful: 119
earlytime: 2933 count_useful: 120
earlytime: 3881 count_useful: 121
earlytime: 5921 count_useful: 122
earlytime: 6862 count_useful: 123
earlytime: 117472 count_useful: 8
earlytime: 99347 count_useful: 124
earlytime: 177001 count_useful: 125
earlytime: 1291156 count_useful: 9
earlytime: 215 count_useful: 126
earlytime: 8029 count_useful: 10
earlytime: 2267 count_useful: 11
earlytime: 1664 count_useful: 127
earlytime: 536 count_useful: 128
earlytime: 19790 count_useful: 12
earlytime: 34545 count_useful: 129
earlytime: 19054 count_useful: 13
earlytime: 29194 count_useful: 130
earlytime: 8538 count_useful: 131
earlytime: 23189 count_useful: 132
earlytime: 24966 count_useful: 133
earlytime: 25232 count_useful: 134
earlytime: 21311 count_useful: 135
earlytime: 21345 count_useful: 136
earlytime: 19720 count_useful: 137
earlytime: 22518 count_useful: 138
earlytime: 38255 count_useful: 139
earlytime: 373175 count_useful: 140
earlytime: 391887 count_useful: 14
earlytime: 22656 count_useful: 141
earlytime: 23284 count_useful: 142
earlytime: 23961 count_useful: 143
earlytime: 20322 count_useful: 144
earlytime: 22501 count_useful: 145
earlytime: 24275 count_useful: 146
earlytime: 23624 count_useful: 147
earlytime: 25197 count_useful: 148
earlytime: 740845 count_useful: 149
earlytime: 782671 count_useful: 150
earlytime: 800015 count_useful: 151
earlytime: 800090 count_useful: 152
earlytime: 913341 count_useful: 153
earlytime: 908602 count_useful: 15
earlytime: 914176 count_useful: 16
earlytime: 908349 count_useful: 17
earlytime: 4058 count_useful: 154
earlytime: 370 count_useful: 155
earlytime: 913349 count_useful: 18
earlytime: 22 count_useful: 156
earlytime: 307 count_useful: 157
earlytime: 241 count_useful: 158
earlytime: 1959 count_useful: 159
earlytime: 98 count_useful: 160
earlytime: 67 count_useful: 161
earlytime: 472 count_useful: 162
earlytime: 1512 count_useful: 163
earlytime: 1739 count_useful: 164
earlytime: 2297 count_useful: 165
earlytime: 40 count_useful: 166
earlytime: 2073000 count_useful: 19
earlytime: 2073230 count_useful: 20
earlytime: 2074971 count_useful: 21
earlytime: 804305 count_useful: 167
earlytime: 5375 count_useful: 168
earlytime: 800 count_useful: 169
earlytime: 16458 count_useful: 170
earlytime: 14725 count_useful: 22
earlytime: 50217 count_useful: 171
earlytime: 473017 count_useful: 172
earlytime: 741199 count_useful: 173
earlytime: 866984 count_useful: 174
earlytime: 904993 count_useful: 23
earlytime: 2977371 count_useful: 24
earlytime: 771275 count_useful: 175
earlytime: 1646125 count_useful: 176
earlytime: 2985914 count_useful: 25
earlytime: 54832 count_useful: 177
earlytime: 1635776 count_useful: 178
earlytime: 1652160 count_useful: 179
earlytime: 1647862 count_useful: 180
earlytime: 1647343 count_useful: 181
earlytime: 2448621 count_useful: 182
earlytime: 2562059 count_useful: 26
earlytime: 1655758 count_useful: 183
earlytime: 1651260 count_useful: 184
earlytime: 3048 count_useful: 185
earlytime: 1655368 count_useful: 186
earlytime: 2456345 count_useful: 187
earlytime: 3345 count_useful: 188
earlytime: 3524 count_useful: 189
earlytime: 395 count_useful: 190
earlytime: 482 count_useful: 27
earlytime: 97 count_useful: 191
earlytime: 155 count_useful: 192
earlytime: 1648 count_useful: 193
earlytime: 698 count_useful: 194
earlytime: 66 count_useful: 195
earlytime: 155 count_useful: 196
earlytime: 55 count_useful: 197
earlytime: 213 count_useful: 198
earlytime: 1888 count_useful: 199
earlytime: 416 count_useful: 200
earlytime: 1394 count_useful: 201
earlytime: 2453919 count_useful: 202
earlytime: 39014 count_useful: 203
earlytime: 44761 count_useful: 204
earlytime: 55973 count_useful: 205
earlytime: 5774 count_useful: 206
earlytime: 20176 count_useful: 207
earlytime: 44728 count_useful: 208
earlytime: 50456 count_useful: 209
earlytime: 1465889 count_useful: 210
earlytime: 1466644 count_useful: 211
earlytime: 1486442 count_useful: 212
earlytime: 1486422 count_useful: 213
earlytime: 1479362 count_useful: 214
earlytime: 1479542 count_useful: 215
earlytime: 55 count_useful: 216
earlytime: 886 count_useful: 217
earlytime: 1475833 count_useful: 218
earlytime: 3816523 count_useful: 219
earlytime: 345 count_useful: 220
earlytime: 1119 count_useful: 221
earlytime: 98 count_useful: 222
earlytime: 67 count_useful: 223
earlytime: 1610 count_useful: 224
earlytime: 437 count_useful: 225
earlytime: 1709 count_useful: 226
earlytime: 1743 count_useful: 227
earlytime: 1573 count_useful: 228
earlytime: 22198 count_useful: 229
earlytime: 33246 count_useful: 230
earlytime: 42727 count_useful: 231
earlytime: 211780 count_useful: 232
earlytime: 220042 count_useful: 233
earlytime: 608140 count_useful: 234
earlytime: 608614 count_useful: 235
earlytime: 6189 count_useful: 236
earlytime: 54779 count_useful: 237
earlytime: 1596208 count_useful: 238
earlytime: 3090043 count_useful: 239
earlytime: 3090067 count_useful: 240
earlytime: 3086286 count_useful: 241
earlytime: 3086411 count_useful: 242
earlytime: 4746208 count_useful: 28
earlytime: 705 count_useful: 29
earlytime: 74 count_useful: 243
earlytime: 145 count_useful: 244
earlytime: 676 count_useful: 245
earlytime: 308818 count_useful: 246
earlytime: 1263633 count_useful: 247
earlytime: 51 count_useful: 248
earlytime: 438 count_useful: 249
earlytime: 170 count_useful: 250
earlytime: 98 count_useful: 251
earlytime: 40 count_useful: 252
earlytime: 2699 count_useful: 253
earlytime: 458 count_useful: 254
earlytime: 102593 count_useful: 255
earlytime: 3200076 count_useful: 256
earlytime: 3200062 count_useful: 257
earlytime: 102 count_useful: 258
earlytime: 55 count_useful: 259
earlytime: 880 count_useful: 260
earlytime: 1479439 count_useful: 261
earlytime: 35414 count_useful: 262
earlytime: 799 count_useful: 263
earlytime: 55 count_useful: 264
earlytime: 337 count_useful: 265
earlytime: 170 count_useful: 266
earlytime: 40 count_useful: 267
earlytime: 3065 count_useful: 268
earlytime: 86156 count_useful: 269
earlytime: 1818202 count_useful: 270
earlytime: 1818183 count_useful: 271
earlytime: 210914 count_useful: 272
earlytime: 214589 count_useful: 273
earlytime: 2870 count_useful: 274
earlytime: 3309163 count_useful: 275
earlytime: 105354 count_useful: 276
earlytime: 4010 count_useful: 277
earlytime: 558 count_useful: 278
earlytime: 4418 count_useful: 279
earlytime: 105264 count_useful: 280
earlytime: 179 count_useful: 281
earlytime: 2479 count_useful: 282
earlytime: 10750 count_useful: 283
earlytime: 2895 count_useful: 284
earlytime: 55 count_useful: 285
earlytime: 846 count_useful: 286
earlytime: 467 count_useful: 287
earlytime: 1221 count_useful: 288
earlytime: 50 count_useful: 289
earlytime: 212 count_useful: 290
earlytime: 40 count_useful: 291
earlytime: 984 count_useful: 30
earlytime: 4353 count_useful: 292
earlytime: 1516 count_useful: 293
earlytime: 3319 count_useful: 294
earlytime: 41153 count_useful: 295
earlytime: 228674 count_useful: 296
earlytime: 314403 count_useful: 297
earlytime: 489845 count_useful: 298
earlytime: 6302 count_useful: 299
Finished CPU 0 instructions: 5000002 cycles: 7670186 cumulative IPC: 0.651875 (Simulation time: 0 hr 0 min 34 sec) 

ChampSim completed all CPUs

Region of Interest Statistics

CPU 0 cumulative IPC: 0.651875 instructions: 5000002 cycles: 7670186
ITLB TOTAL     ACCESS:     777030  HIT:     776973  MISS:         57  HIT %:    99.9927  MISS %: 0.00733562   MPKI: 0.0114
ITLB LOAD TRANSLATION ACCESS:     777030  HIT:     776973  MISS:         57  HIT %:    99.9927  MISS %: 0.00733562   MPKI: 0.0114
ITLB PREFETCH  REQUESTED:          0  ISSUED:          0  USEFUL:          0  USELESS:          0
ITLB USEFUL LOAD PREFETCHES:          0 PREFETCH ISSUED TO LOWER LEVEL:          0  ACCURACY: -nan
ITLB TIMELY PREFETCHES:          0 LATE PREFETCHES: 0 DROPPED PREFETCHES: 0
ITLB PREFETCHES SAME FILL-ORIGIN LEVEL: 0 DIFFERENT FILL-ORIGIN LEVEL: 0
ITLB AVERAGE MISS LATENCY: 118.684 cycles
ITLB RQ	ACCESS:     881462	FORWARD:          0	MERGED:     104419	TO_CACHE:     777043

DTLB TOTAL     ACCESS:    1224971  HIT:    1222413  MISS:       2558  HIT %:    99.7912  MISS %:   0.208821   MPKI: 0.5116
DTLB LOAD TRANSLATION ACCESS:    1224971  HIT:    1222413  MISS:       2558  HIT %:    99.7912  MISS %:   0.208821   MPKI: 0.5116
DTLB PREFETCH  REQUESTED:          0  ISSUED:          0  USEFUL:          0  USELESS:          0
DTLB USEFUL LOAD PREFETCHES:          0 PREFETCH ISSUED TO LOWER LEVEL:          0  ACCURACY: -nan
DTLB TIMELY PREFETCHES:          0 LATE PREFETCHES: 0 DROPPED PREFETCHES: 0
DTLB PREFETCHES SAME FILL-ORIGIN LEVEL: 0 DIFFERENT FILL-ORIGIN LEVEL: 0
DTLB AVERAGE MISS LATENCY: 23.5145 cycles
DTLB RQ	ACCESS:    1806852	FORWARD:          0	MERGED:     581854	TO_CACHE:    1224998

STLB TOTAL     ACCESS:      13877  HIT:      13684  MISS:        193  HIT %:    98.6092  MISS %:    1.39079   MPKI: 0.0386
STLB LOAD TRANSLATION ACCESS:       2615  HIT:       2422  MISS:        193  HIT %:    92.6195  MISS %:     7.3805   MPKI: 0.0386
STLB TRANSLATION FROM L1D PREFETCHER ACCESS:      11262  HIT:      11262  MISS:          0  HIT %:        100  MISS %:          0   MPKI: 0
STLB PREFETCH  REQUESTED:          0  ISSUED:          0  USEFUL:          0  USELESS:          0
STLB USEFUL LOAD PREFETCHES:          0 PREFETCH ISSUED TO LOWER LEVEL:          0  ACCURACY: -nan
STLB TIMELY PREFETCHES:          0 LATE PREFETCHES: 0 DROPPED PREFETCHES: 0
STLB PREFETCHES SAME FILL-ORIGIN LEVEL: 0 DIFFERENT FILL-ORIGIN LEVEL: 0
STLB AVERAGE MISS LATENCY: 223.684 cycles
STLB RQ	ACCESS:      41483	FORWARD:          0	MERGED:      27606	TO_CACHE:      13877

STLB Hit, L1D data hit: 0
STLB Hit, L2C data hit: 0
STLB Hit, LLC data hit: 0
STLB Hit, LLC data miss: 0
STLB STLB hints to L2: 0
L1D TOTAL     ACCESS:    1845571  HIT:    1843767  MISS:       1804  HIT %:    99.9023  MISS %:  0.0977475   MPKI: 0.3608
L1D LOAD      ACCESS:     845573  HIT:     844967  MISS:        606  HIT %:    99.9283  MISS %:  0.0716674   MPKI: 0.1212
L1D RFO       ACCESS:     961161  HIT:     961122  MISS:         39  HIT %:    99.9959  MISS %: 0.00405759   MPKI: 0.0078
L1D PREFETCH  ACCESS:      38837  HIT:      37678  MISS:       1159  HIT %:    97.0157  MISS %:    2.98427   MPKI: 0.2318
L1D PREFETCH  REQUESTED:      77823  ISSUED:      77736  USEFUL:        299  USELESS:        766
L1D USEFUL LOAD PREFETCHES:        299 PREFETCH ISSUED TO LOWER LEVEL:       1170  ACCURACY: 25.5556
L1D TIMELY PREFETCHES:        299 LATE PREFETCHES: 11 DROPPED PREFETCHES: 0
L1D PREFETCHES SAME FILL-ORIGIN LEVEL: 1170 DIFFERENT FILL-ORIGIN LEVEL: 0
L1D AVERAGE MISS LATENCY: 28673.2 cycles
L1D RQ	ACCESS:    1084065	FORWARD:          0	MERGED:     205141	TO_CACHE:     845633
L1D WQ	ACCESS:     977050	FORWARD:      33291	MERGED:      15831	TO_CACHE:     961219
L1D PQ	ACCESS:      38868	FORWARD:          0	MERGED:          0	TO_CACHE:      38868

L1D UNIQUE REGIONS ACCESSED: 0
L1D REGIONS CONFLICTS: 0
L1D Cross Page Prefetch Requests: 0
L1D Same Page Prefetch Requests: 91063
L1D ROI Sum of L1D PQ occupancy: 549469
L1D PREFETCHES PUSHED FROM L2C: 0
L1I TOTAL     ACCESS:     881347  HIT:     880689  MISS:        658  HIT %:    99.9253  MISS %:  0.0746584   MPKI: 0.1316
L1I LOAD      ACCESS:     881347  HIT:     880689  MISS:        658  HIT %:    99.9253  MISS %:  0.0746584   MPKI: 0.1316
L1I PREFETCH  REQUESTED:          0  ISSUED:          0  USEFUL:          0  USELESS:          0
L1I USEFUL LOAD PREFETCHES:          0 PREFETCH ISSUED TO LOWER LEVEL:          0  ACCURACY: -nan
L1I TIMELY PREFETCHES:          0 LATE PREFETCHES: 0 DROPPED PREFETCHES: 0
L1I PREFETCHES SAME FILL-ORIGIN LEVEL: 0 DIFFERENT FILL-ORIGIN LEVEL: 0
L1I AVERAGE MISS LATENCY: 116.368 cycles
L1I RQ	ACCESS:    1383758	FORWARD:          0	MERGED:     502296	TO_CACHE:     881462

BTB TOTAL     ACCESS:     563167  HIT:     544076  MISS:      19091  HIT %:    96.6101  MISS %:    3.38994   MPKI: 3.8182
BTB BRANCH_DIRECT_JUMP	ACCESS:      99645  HIT:      99539  MISS:        106
BTB BRANCH_INDIRECT	ACCESS:      36688  HIT:      18813  MISS:      17875
BTB BRANCH_CONDITIONAL	ACCESS:     341779  HIT:     341446  MISS:        333
BTB BRANCH_DIRECT_CALL	ACCESS:      41600  HIT:      41540  MISS:         60
BTB BRANCH_INDIRECT_CALL	ACCESS:        928  HIT:        482  MISS:        446
BTB BRANCH_RETURN	ACCESS:      42527  HIT:      42256  MISS:        271
BTB BRANCH_OTHER ACCESS:          0  HIT:          0  MISS:          0

L2C TOTAL     ACCESS:       2964  HIT:        831  MISS:       2133  HIT %:    28.0364  MISS %:    71.9636   MPKI: 0.4266
L2C LOAD      ACCESS:       1253  HIT:        330  MISS:        923  HIT %:    26.3368  MISS %:    73.6632   MPKI: 0.1846
L2C DATA LOAD MPKI: 0.1074
L2C INSTRUCTION LOAD MPKI: 0.0772
L2C RFO       ACCESS:         39  HIT:          7  MISS:         32  HIT %:    17.9487  MISS %:    82.0513   MPKI: 0.0064
L2C PREFETCH  ACCESS:       1393  HIT:        303  MISS:       1090  HIT %:    21.7516  MISS %:    78.2484   MPKI: 0.218
L2C DATA PREFETCH MPKI: 0.218
L2C INSTRUCTION PREFETCH MPKI: 0
L2C WRITEBACK ACCESS:         75  HIT:         75  MISS:          0  HIT %:        100  MISS %:          0   MPKI: 0
L2C LOAD TRANSLATION ACCESS:        204  HIT:        116  MISS:         88  HIT %:    56.8627  MISS %:    43.1373   MPKI: 0.0176
L2C PREFETCH  REQUESTED:        269  ISSUED:        269  USEFUL:         30  USELESS:          0
L2C USEFUL LOAD PREFETCHES:         30 PREFETCH ISSUED TO LOWER LEVEL:       1092  ACCURACY: 2.74725
L2C TIMELY PREFETCHES:         30 LATE PREFETCHES: 2 DROPPED PREFETCHES: 0
L2C PREFETCHES SAME FILL-ORIGIN LEVEL: 134 DIFFERENT FILL-ORIGIN LEVEL: 0
L2C AVERAGE MISS LATENCY: 168.676 cycles
L2C RQ	ACCESS:       1496	FORWARD:          0	MERGED:          0	TO_CACHE:       1496
L2C WQ	ACCESS:         75	FORWARD:          0	MERGED:          0	TO_CACHE:         75
L2C PQ	ACCESS:       1439	FORWARD:          0	MERGED:         22	TO_CACHE:       1417

L2C Instructions Evicting Data 0
L2C Translations Evicting Data 0
L2C Data Evicting Data 0
L2C Instructions Evicting Instructions 0
L2C Translations Evicting Instructions 0
L2C Data Evicting Instructions 0
L2C Instructions Evicting Translations 0
L2C Translations Evicting Translations 0
L2C Data Evicting Translations 0
L2C Dense regions hint from L2: 0
PSCL5 TOTAL     ACCESS:        193  HIT:        193  MISS:          0  HIT %:        100  MISS %:          0   MPKI: 0
PSCL5 LOAD TRANSLATION ACCESS:        193  HIT:        193  MISS:          0  HIT %:        100  MISS %:          0   MPKI: 0
PSCL5 PREFETCH  REQUESTED:          0  ISSUED:          0  USEFUL:          0  USELESS:          0
PSCL5 USEFUL LOAD PREFETCHES:          0 PREFETCH ISSUED TO LOWER LEVEL:          0  ACCURACY: -nan
PSCL5 TIMELY PREFETCHES:          0 LATE PREFETCHES: 0 DROPPED PREFETCHES: 0
PSCL5 PREFETCHES SAME FILL-ORIGIN LEVEL: 0 DIFFERENT FILL-ORIGIN LEVEL: 0

PSCL4 TOTAL     ACCESS:        193  HIT:        193  MISS:          0  HIT %:        100  MISS %:          0   MPKI: 0
PSCL4 LOAD TRANSLATION ACCESS:        193  HIT:        193  MISS:          0  HIT %:        100  MISS %:          0   MPKI: 0
PSCL4 PREFETCH  REQUESTED:          0  ISSUED:          0  USEFUL:          0  USELESS:          0
PSCL4 USEFUL LOAD PREFETCHES:          0 PREFETCH ISSUED TO LOWER LEVEL:          0  ACCURACY: -nan
PSCL4 TIMELY PREFETCHES:          0 LATE PREFETCHES: 0 DROPPED PREFETCHES: 0
PSCL4 PREFETCHES SAME FILL-ORIGIN LEVEL: 0 DIFFERENT FILL-ORIGIN LEVEL: 0

PSCL3 TOTAL     ACCESS:        193  HIT:        193  MISS:          0  HIT %:        100  MISS %:          0   MPKI: 0
PSCL3 LOAD TRANSLATION ACCESS:        193  HIT:        193  MISS:          0  HIT %:        100  MISS %:          0   MPKI: 0
PSCL3 PREFETCH  REQUESTED:          0  ISSUED:          0  USEFUL:          0  USELESS:          0
PSCL3 USEFUL LOAD PREFETCHES:          0 PREFETCH ISSUED TO LOWER LEVEL:          0  ACCURACY: -nan
PSCL3 TIMELY PREFETCHES:          0 LATE PREFETCHES: 0 DROPPED PREFETCHES: 0
PSCL3 PREFETCHES SAME FILL-ORIGIN LEVEL: 0 DIFFERENT FILL-ORIGIN LEVEL: 0

PSCL2 TOTAL     ACCESS:        193  HIT:        156  MISS:         37  HIT %:     80.829  MISS %:     19.171   MPKI: 0.0074
PSCL2 LOAD TRANSLATION ACCESS:        193  HIT:        156  MISS:         37  HIT %:     80.829  MISS %:     19.171   MPKI: 0.0074
PSCL2 PREFETCH  REQUESTED:          0  ISSUED:          0  USEFUL:          0  USELESS:          0
PSCL2 USEFUL LOAD PREFETCHES:          0 PREFETCH ISSUED TO LOWER LEVEL:          0  ACCURACY: -nan
PSCL2 TIMELY PREFETCHES:          0 LATE PREFETCHES: 0 DROPPED PREFETCHES: 0
PSCL2 PREFETCHES SAME FILL-ORIGIN LEVEL: 0 DIFFERENT FILL-ORIGIN LEVEL: 0

LLC TOTAL     ACCESS:       2133  HIT:          0  MISS:       2133  HIT %:          0  MISS %:        100   MPKI: 0.4266
LLC LOAD      ACCESS:        921  HIT:          0  MISS:        921  HIT %:          0  MISS %:        100   MPKI: 0.1842
LLC RFO       ACCESS:         32  HIT:          0  MISS:         32  HIT %:          0  MISS %:        100   MPKI: 0.0064
LLC PREFETCH  ACCESS:       1092  HIT:          0  MISS:       1092  HIT %:          0  MISS %:        100   MPKI: 0.2184
LLC LOAD TRANSLATION ACCESS:         88  HIT:          0  MISS:         88  HIT %:          0  MISS %:        100   MPKI: 0.0176
LLC PREFETCH  REQUESTED:          0  ISSUED:          0  USEFUL:          0  USELESS:          0
LLC USEFUL LOAD PREFETCHES:          0 PREFETCH ISSUED TO LOWER LEVEL:       1092  ACCURACY: 0
LLC TIMELY PREFETCHES:          0 LATE PREFETCHES: 0 DROPPED PREFETCHES: 0
LLC PREFETCHES SAME FILL-ORIGIN LEVEL: 0 DIFFERENT FILL-ORIGIN LEVEL: 0
LLC AVERAGE MISS LATENCY: 137.335 cycles
LLC RQ	ACCESS:       1041	FORWARD:          0	MERGED:          0	TO_CACHE:       1041
LLC PQ	ACCESS:       1092	FORWARD:          0	MERGED:          0	TO_CACHE:       1092

LLC Dense regions hint to LLC: 0

RAW hits: 80561
Loads Generated: 1164628
Loads sent to L1D: 1084065
Stores Generated: 977051
Stores sent to L1D: 977050
Major fault: 0 Minor fault: 300
Allocated PAGES: 300

stream: 
stream:times selected: 77313
stream:pref_filled: 788
stream:pref_useful: 223
stream:pref_late: 8
stream:misses: 34
stream:misses_by_poll: 0

CS: 
CS:times selected: 1991
CS:pref_filled: 89
CS:pref_useful: 67
CS:pref_late: 0
CS:misses: 4
CS:misses_by_poll: 0

CPLX: 
CPLX:times selected: 75154
CPLX:pref_filled: 441
CPLX:pref_useful: 37
CPLX:pref_late: 1
CPLX:misses: 179
CPLX:misses_by_poll: 0

NL_L1: 
NL:times selected: 22
NL:pref_filled: 3
NL:pref_useful: 1
NL:pref_late: 0
NL:misses: 1
NL:misses_by_poll: 0

total selections: 154480
total_filled: 1159
total_useful: 299
total_late: 11
total_polluted: 0
total_misses_after_warmup: 666
conflicts: 20180
Degree Incremented Times: 0
Degree Decremented Times: 37405

L1 IP Table Write Accesses: 756860
L1 IP Table Read Accesses: 736680
L1 RST Write Accesses: 63041
L1 RST Read Accesses: 126080
L1 CSPT Write Accesses: 63041
L1 CSPT Read Accesses: 147577
L1 RR Filter Tag Write Accesses: 38955
L1 RR Filter Tag Read Accesses: 3555072
L1 IP Table Tag Write Accesses: 845633
L1 IP Table Tag Read Accesses: 845633
L1 RST Tag Write Accesses: 8
L1 RST Tag Read Accesses: 856672
L1 RR Filter Write Accesses: 0
L1 RR Filter Read Accesses: 170860
test: 875
L2 IP Table Read Accesses: 3225
L2 IP Table Write Accesses: 3022
L2 IP Table Tag Read Accesses: 1749
L2 IP Table Tag Write Accesses: 1749

DRAM Statistics
 CHANNEL 0
 RQ ROW_BUFFER_HIT:        842  ROW_BUFFER_MISS:       1291
 DBUS_CONGESTED:          0
 WQ ROW_BUFFER_HIT:          0  ROW_BUFFER_MISS:          0  FULL:          0

 AVG_CONGESTED_CYCLE: -
 All warmup complete: 2
Channel 0 Bank busy for read cycles: 0
Channel 0 Bank busy for write cycles: 0
Channel 0
Rank 0
0banks busy for read cycles: 7523484
0banks busy for write cycles: 0
1banks busy for read cycles: 95270
1banks busy for write cycles: 0
2banks busy for read cycles: 34020
2banks busy for write cycles: 0
3banks busy for read cycles: 8827
3banks busy for write cycles: 0
4banks busy for read cycles: 3297
4banks busy for write cycles: 0
5banks busy for read cycles: 1563
5banks busy for write cycles: 0
6banks busy for read cycles: 1736
6banks busy for write cycles: 0
7banks busy for read cycles: 1379
7banks busy for write cycles: 0
8banks busy for read cycles: 611
8banks busy for write cycles: 0

CPU 0 Branch Prediction Accuracy: 97.8072% MPKI: 3.4928 Average ROB Occupancy at Mispredict: 41.6656
Branch types
NOT_BRANCH: 4203274 84.0654%
BRANCH_DIRECT_JUMP: 99645 1.9929%
BRANCH_INDIRECT: 36688 0.73376%
BRANCH_CONDITIONAL: 575038 11.5008%
BRANCH_DIRECT_CALL: 41600 0.832%
BRANCH_INDIRECT_CALL: 928 0.01856%
BRANCH_RETURN: 42527 0.85054%
BRANCH_OTHER: 0 0%

@sumonL1D PREFETCH  REQUESTED:      77823  ISSUED:      77736
@sumonL1D TIMELY PREFETCHES:        299 LATE PREFETCHES: 11 DROPPED PREFETCHES: 0
DRAM PAGES: 1048576
Allocated PAGES: 300
