
*** ChampSim Multicore Out-of-Order Simulator ***

Warmup Instructions: 10000000
Simulation Instructions: 50000000
Number of CPUs: 1
LLC sets: 2048
LLC ways: 16
Off-chip DRAM Size: 4096 MB Channels: 1 Width: 64-bit Data Rate: 800 MT/s
CPU 0 runs traces/SPEC2017/605.mcf_s-472B.champsimtrace.xz
.xz
CPU 0 Bimodal branch predictor
BTB has LRU replacement policy
ITLB has LRU replacement policy
DTLB has LRU replacement policy
STLB has LRU replacement policy
L1I has LRU replacement policy
IP Table Entries: 256
L1D has LRU replacement policy
IP_Table L2 entries: 256
L2C has LRU replacement policy
LLC has LRU replacement policy
Heartbeat CPU 0 instructions: 10000001 cycles: 3183710 heartbeat IPC: 3.14099 cumulative IPC: 3.14099 (Simulation time: 0 hr 29 min 13 sec) 

Warmup complete CPU 0 instructions: 10000001 cycles: 3183710 (Simulation time: 0 hr 29 min 13 sec) 

Heartbeat CPU 0 instructions: 20000000 cycles: 58385876 heartbeat IPC: 0.181152 cumulative IPC: 0.181152 (Simulation time: 1 hr 20 min 21 sec) 
Heartbeat CPU 0 instructions: 30000001 cycles: 124549712 heartbeat IPC: 0.15114 cumulative IPC: 0.164791 (Simulation time: 2 hr 10 min 30 sec) 
Heartbeat CPU 0 instructions: 40000000 cycles: 163295304 heartbeat IPC: 0.258094 cumulative IPC: 0.187369 (Simulation time: 2 hr 26 min 33 sec) 
Heartbeat CPU 0 instructions: 50000000 cycles: 206168661 heartbeat IPC: 0.233245 cumulative IPC: 0.197059 (Simulation time: 2 hr 38 min 14 sec) 
Heartbeat CPU 0 instructions: 60000001 cycles: 249470261 heartbeat IPC: 0.230938 cumulative IPC: 0.203016 (Simulation time: 2 hr 46 min 20 sec) 
Finished CPU 0 instructions: 50000000 cycles: 246286551 cumulative IPC: 0.203016 (Simulation time: 2 hr 46 min 20 sec) 

ChampSim completed all CPUs

Region of Interest Statistics

CPU 0 cumulative IPC: 0.203016 instructions: 50000000 cycles: 246286551
ITLB TOTAL     ACCESS:    8758392  HIT:    8758392  MISS:          0  HIT %:        100  MISS %:          0   MPKI: 0
ITLB LOAD TRANSLATION ACCESS:    8758392  HIT:    8758392  MISS:          0  HIT %:        100  MISS %:          0   MPKI: 0
ITLB PREFETCH  REQUESTED:          0  ISSUED:          0  USEFUL:          0  USELESS:          0
ITLB USEFUL LOAD PREFETCHES:          0 PREFETCH ISSUED TO LOWER LEVEL:          0  ACCURACY: -nan
ITLB TIMELY PREFETCHES:          0 LATE PREFETCHES: 0 DROPPED PREFETCHES: 0
ITLB PREFETCHES SAME FILL-ORIGIN LEVEL: 0 DIFFERENT FILL-ORIGIN LEVEL: 0
ITLB AVERAGE MISS LATENCY: -nan cycles
ITLB RQ	ACCESS:   11275924	FORWARD:          0	MERGED:    2517533	TO_CACHE:    8758391

DTLB TOTAL     ACCESS:   14119923  HIT:   13993097  MISS:     126826  HIT %:    99.1018  MISS %:   0.898206   MPKI: 2.53652
DTLB LOAD TRANSLATION ACCESS:   14119923  HIT:   13993097  MISS:     126826  HIT %:    99.1018  MISS %:   0.898206   MPKI: 2.53652
DTLB PREFETCH  REQUESTED:          0  ISSUED:          0  USEFUL:          0  USELESS:          0
DTLB USEFUL LOAD PREFETCHES:          0 PREFETCH ISSUED TO LOWER LEVEL:          0  ACCURACY: -nan
DTLB TIMELY PREFETCHES:          0 LATE PREFETCHES: 0 DROPPED PREFETCHES: 0
DTLB PREFETCHES SAME FILL-ORIGIN LEVEL: 0 DIFFERENT FILL-ORIGIN LEVEL: 0
DTLB AVERAGE MISS LATENCY: 74.445 cycles
DTLB RQ	ACCESS:   22704565	FORWARD:          0	MERGED:    8539470	TO_CACHE:   14165095

STLB TOTAL     ACCESS:    4504114  HIT:    4429840  MISS:      74274  HIT %:     98.351  MISS %:    1.64903   MPKI: 1.48548
STLB LOAD TRANSLATION ACCESS:     126826  HIT:      52583  MISS:      74243  HIT %:    41.4607  MISS %:    58.5393   MPKI: 1.48486
STLB TRANSLATION FROM L1D PREFETCHER ACCESS:    4377288  HIT:    4377257  MISS:         31  HIT %:    99.9993  MISS %: 0.000708201   MPKI: 0.00062
STLB PREFETCH  REQUESTED:          0  ISSUED:          0  USEFUL:         22  USELESS:          9
STLB USEFUL LOAD PREFETCHES:         22 PREFETCH ISSUED TO LOWER LEVEL:          0  ACCURACY: inf
STLB TIMELY PREFETCHES:         22 LATE PREFETCHES: 0 DROPPED PREFETCHES: 0
STLB PREFETCHES SAME FILL-ORIGIN LEVEL: 0 DIFFERENT FILL-ORIGIN LEVEL: 0
STLB AVERAGE MISS LATENCY: 111.852 cycles
STLB RQ	ACCESS:    7086124	FORWARD:          0	MERGED:    2582010	TO_CACHE:    4504114

STLB Hit, L1D data hit: 0
STLB Hit, L2C data hit: 0
STLB Hit, LLC data hit: 0
STLB Hit, LLC data miss: 0
STLB STLB hints to L2: 0
L1D TOTAL     ACCESS:   27998460  HIT:   23716025  MISS:    4282435  HIT %:    84.7047  MISS %:    15.2953   MPKI: 85.6487
L1D LOAD      ACCESS:   10144814  HIT:    8635317  MISS:    1509497  HIT %:    85.1205  MISS %:    14.8795   MPKI: 30.1899
L1D RFO       ACCESS:   11202052  HIT:   11066540  MISS:     135512  HIT %:    98.7903  MISS %:    1.20971   MPKI: 2.71024
L1D PREFETCH  ACCESS:    6651594  HIT:    4014168  MISS:    2637426  HIT %:     60.349  MISS %:     39.651   MPKI: 52.7485
L1D PREFETCH  REQUESTED:   14018660  ISSUED:   13919423  USEFUL:     769300  USELESS:    1868174
L1D USEFUL LOAD PREFETCHES:     769300 PREFETCH ISSUED TO LOWER LEVEL:    2643861  ACCURACY: 29.0976
L1D TIMELY PREFETCHES:     769300 LATE PREFETCHES: 688532 DROPPED PREFETCHES: 0
L1D PREFETCHES SAME FILL-ORIGIN LEVEL: 2643861 DIFFERENT FILL-ORIGIN LEVEL: 0
L1D AVERAGE MISS LATENCY: 196872 cycles
L1D RQ	ACCESS:   17025621	FORWARD:          0	MERGED:    5933553	TO_CACHE:   11082640
L1D WQ	ACCESS:   11892813	FORWARD:       9428	MERGED:     270888	TO_CACHE:   11621925
L1D PQ	ACCESS:    6960125	FORWARD:          0	MERGED:        827	TO_CACHE:    6959298

L1D UNIQUE REGIONS ACCESSED: 0
L1D REGIONS CONFLICTS: 0
L1D Cross Page Prefetch Requests: 0
L1D Same Page Prefetch Requests: 9105316
L1D ROI Sum of L1D PQ occupancy: 319407854
L1D PREFETCHES PUSHED FROM L2C: 0
L1I TOTAL     ACCESS:   11275923  HIT:   11275923  MISS:          0  HIT %:        100  MISS %:          0   MPKI: 0
L1I LOAD      ACCESS:   11275923  HIT:   11275923  MISS:          0  HIT %:        100  MISS %:          0   MPKI: 0
L1I PREFETCH  REQUESTED:          0  ISSUED:          0  USEFUL:          0  USELESS:          0
L1I USEFUL LOAD PREFETCHES:          0 PREFETCH ISSUED TO LOWER LEVEL:          0  ACCURACY: -nan
L1I TIMELY PREFETCHES:          0 LATE PREFETCHES: 0 DROPPED PREFETCHES: 0
L1I PREFETCHES SAME FILL-ORIGIN LEVEL: 0 DIFFERENT FILL-ORIGIN LEVEL: 0
L1I AVERAGE MISS LATENCY: -nan cycles
L1I RQ	ACCESS:   15295516	FORWARD:          0	MERGED:    4019592	TO_CACHE:   11275924

BTB TOTAL     ACCESS:    5821401  HIT:    5821367  MISS:         34  HIT %:    99.9994  MISS %: 0.000584052   MPKI: 0.00068
BTB BRANCH_DIRECT_JUMP	ACCESS:     638582  HIT:     638576  MISS:          6
BTB BRANCH_INDIRECT	ACCESS:          0  HIT:          0  MISS:          0
BTB BRANCH_CONDITIONAL	ACCESS:    5182671  HIT:    5182647  MISS:         24
BTB BRANCH_DIRECT_CALL	ACCESS:         74  HIT:         72  MISS:          2
BTB BRANCH_INDIRECT_CALL	ACCESS:          0  HIT:          0  MISS:          0
BTB BRANCH_RETURN	ACCESS:         74  HIT:         72  MISS:          2
BTB BRANCH_OTHER ACCESS:          0  HIT:          0  MISS:          0

L2C TOTAL     ACCESS:    5251429  HIT:    1216833  MISS:    4034596  HIT %:    23.1715  MISS %:    76.8285   MPKI: 80.6919
L2C LOAD      ACCESS:    1509481  HIT:      63521  MISS:    1445960  HIT %:    4.20814  MISS %:    95.7919   MPKI: 28.9192
L2C DATA LOAD MPKI: 28.9192
L2C INSTRUCTION LOAD MPKI: 0
L2C RFO       ACCESS:     129072  HIT:       5376  MISS:     123696  HIT %:    4.16512  MISS %:    95.8349   MPKI: 2.47392
L2C PREFETCH  ACCESS:    3228066  HIT:     775291  MISS:    2452775  HIT %:    24.0172  MISS %:    75.9828   MPKI: 49.0555
L2C DATA PREFETCH MPKI: 49.0555
L2C INSTRUCTION PREFETCH MPKI: 0
L2C WRITEBACK ACCESS:     310492  HIT:     308948  MISS:       1544  HIT %:    99.5027  MISS %:   0.497275   MPKI: 0.03088
L2C LOAD TRANSLATION ACCESS:      74287  HIT:      63697  MISS:      10590  HIT %:    85.7445  MISS %:    14.2555   MPKI: 0.2118
L2C TRANSLATION FROM L1D PREFETCHER ACCESS:         31  HIT:          0  MISS:         31  HIT %:          0  MISS %:        100   MPKI: 0.00062
L2C PREFETCH  REQUESTED:     861694  ISSUED:     861694  USEFUL:      19306  USELESS:    2434596
L2C USEFUL LOAD PREFETCHES:      19306 PREFETCH ISSUED TO LOWER LEVEL:    2453836  ACCURACY: 0.786768
L2C TIMELY PREFETCHES:      19306 LATE PREFETCHES: 1061 DROPPED PREFETCHES: 0
L2C PREFETCHES SAME FILL-ORIGIN LEVEL: 332750 DIFFERENT FILL-ORIGIN LEVEL: 0
L2C AVERAGE MISS LATENCY: 499.726 cycles
L2C RQ	ACCESS:    1712892	FORWARD:          0	MERGED:          0	TO_CACHE:    1712871
L2C WQ	ACCESS:     310492	FORWARD:         37	MERGED:          0	TO_CACHE:     310492
L2C PQ	ACCESS:    3505555	FORWARD:          0	MERGED:      23652	TO_CACHE:    3481887

L2C Instructions Evicting Data 0
L2C Translations Evicting Data 10610
L2C Data Evicting Data 4011891
L2C Instructions Evicting Instructions 0
L2C Translations Evicting Instructions 0
L2C Data Evicting Instructions 0
L2C Instructions Evicting Translations 0
L2C Translations Evicting Translations 11
L2C Data Evicting Translations 10540
L2C Dense regions hint from L2: 0
PSCL5 TOTAL     ACCESS:      74274  HIT:      74274  MISS:          0  HIT %:        100  MISS %:          0   MPKI: 0
PSCL5 LOAD TRANSLATION ACCESS:      74243  HIT:      74243  MISS:          0  HIT %:        100  MISS %:          0   MPKI: 0
PSCL5 TRANSLATION FROM L1D PREFETCHER ACCESS:         31  HIT:         31  MISS:          0  HIT %:        100  MISS %:          0   MPKI: 0
PSCL5 PREFETCH  REQUESTED:          0  ISSUED:          0  USEFUL:          0  USELESS:          0
PSCL5 USEFUL LOAD PREFETCHES:          0 PREFETCH ISSUED TO LOWER LEVEL:          0  ACCURACY: -nan
PSCL5 TIMELY PREFETCHES:          0 LATE PREFETCHES: 0 DROPPED PREFETCHES: 0
PSCL5 PREFETCHES SAME FILL-ORIGIN LEVEL: 0 DIFFERENT FILL-ORIGIN LEVEL: 0

PSCL4 TOTAL     ACCESS:      74274  HIT:      74274  MISS:          0  HIT %:        100  MISS %:          0   MPKI: 0
PSCL4 LOAD TRANSLATION ACCESS:      74243  HIT:      74243  MISS:          0  HIT %:        100  MISS %:          0   MPKI: 0
PSCL4 TRANSLATION FROM L1D PREFETCHER ACCESS:         31  HIT:         31  MISS:          0  HIT %:        100  MISS %:          0   MPKI: 0
PSCL4 PREFETCH  REQUESTED:          0  ISSUED:          0  USEFUL:          0  USELESS:          0
PSCL4 USEFUL LOAD PREFETCHES:          0 PREFETCH ISSUED TO LOWER LEVEL:          0  ACCURACY: -nan
PSCL4 TIMELY PREFETCHES:          0 LATE PREFETCHES: 0 DROPPED PREFETCHES: 0
PSCL4 PREFETCHES SAME FILL-ORIGIN LEVEL: 0 DIFFERENT FILL-ORIGIN LEVEL: 0

PSCL3 TOTAL     ACCESS:      74274  HIT:      74274  MISS:          0  HIT %:        100  MISS %:          0   MPKI: 0
PSCL3 LOAD TRANSLATION ACCESS:      74243  HIT:      74243  MISS:          0  HIT %:        100  MISS %:          0   MPKI: 0
PSCL3 TRANSLATION FROM L1D PREFETCHER ACCESS:         31  HIT:         31  MISS:          0  HIT %:        100  MISS %:          0   MPKI: 0
PSCL3 PREFETCH  REQUESTED:          0  ISSUED:          0  USEFUL:          0  USELESS:          0
PSCL3 USEFUL LOAD PREFETCHES:          0 PREFETCH ISSUED TO LOWER LEVEL:          0  ACCURACY: -nan
PSCL3 TIMELY PREFETCHES:          0 LATE PREFETCHES: 0 DROPPED PREFETCHES: 0
PSCL3 PREFETCHES SAME FILL-ORIGIN LEVEL: 0 DIFFERENT FILL-ORIGIN LEVEL: 0

PSCL2 TOTAL     ACCESS:      74274  HIT:      74198  MISS:         76  HIT %:    99.8977  MISS %:   0.102324   MPKI: 0.00152
PSCL2 LOAD TRANSLATION ACCESS:      74243  HIT:      74167  MISS:         76  HIT %:    99.8976  MISS %:   0.102367   MPKI: 0.00152
PSCL2 TRANSLATION FROM L1D PREFETCHER ACCESS:         31  HIT:         31  MISS:          0  HIT %:        100  MISS %:          0   MPKI: 0
PSCL2 PREFETCH  REQUESTED:          0  ISSUED:          0  USEFUL:          0  USELESS:          0
PSCL2 USEFUL LOAD PREFETCHES:          0 PREFETCH ISSUED TO LOWER LEVEL:          0  ACCURACY: -nan
PSCL2 TIMELY PREFETCHES:          0 LATE PREFETCHES: 0 DROPPED PREFETCHES: 0
PSCL2 PREFETCHES SAME FILL-ORIGIN LEVEL: 0 DIFFERENT FILL-ORIGIN LEVEL: 0

LLC TOTAL     ACCESS:    4292306  HIT:     276866  MISS:    4015440  HIT %:    6.45029  MISS %:    93.5497   MPKI: 80.3088
LLC LOAD      ACCESS:    1444899  HIT:       2626  MISS:    1442273  HIT %:   0.181743  MISS %:    99.8183   MPKI: 28.8455
LLC RFO       ACCESS:     123696  HIT:        147  MISS:     123549  HIT %:    0.11884  MISS %:    99.8812   MPKI: 2.47098
LLC PREFETCH  ACCESS:    2453836  HIT:      16408  MISS:    2437428  HIT %:   0.668667  MISS %:    99.3313   MPKI: 48.7486
LLC WRITEBACK ACCESS:     259254  HIT:     257312  MISS:       1942  HIT %:    99.2509  MISS %:   0.749072   MPKI: 0.03884
LLC LOAD TRANSLATION ACCESS:      10590  HIT:        373  MISS:      10217  HIT %:    3.52219  MISS %:    96.4778   MPKI: 0.20434
LLC TRANSLATION FROM L1D PREFETCHER ACCESS:         31  HIT:          0  MISS:         31  HIT %:          0  MISS %:        100   MPKI: 0.00062
LLC PREFETCH  REQUESTED:          0  ISSUED:          0  USEFUL:       1494  USELESS:    2442577
LLC USEFUL LOAD PREFETCHES:       1494 PREFETCH ISSUED TO LOWER LEVEL:    2437428  ACCURACY: 0.0612941
LLC TIMELY PREFETCHES:       1494 LATE PREFETCHES: 0 DROPPED PREFETCHES: 0
LLC PREFETCHES SAME FILL-ORIGIN LEVEL: 0 DIFFERENT FILL-ORIGIN LEVEL: 0
LLC AVERAGE MISS LATENCY: 472.003 cycles
LLC RQ	ACCESS:    1579216	FORWARD:          0	MERGED:          0	TO_CACHE:    1579216
LLC WQ	ACCESS:     259254	FORWARD:          0	MERGED:          0	TO_CACHE:     259254
LLC PQ	ACCESS:    2453836	FORWARD:          0	MERGED:          0	TO_CACHE:    2453836

LLC Dense regions hint to LLC: 0

RAW hits: 727304
Loads Generated: 17752925
Loads sent to L1D: 17025621
Stores Generated: 11892805
Stores sent to L1D: 11892813
Major fault: 0 Minor fault: 13946
Allocated PAGES: 13946

stream: 
stream:times selected: 8181643
stream:pref_filled: 1963335
stream:pref_useful: 413679
stream:pref_late: 263688
stream:misses: 227378
stream:misses_by_poll: 0

CS: 
CS:times selected: 541108
CS:pref_filled: 337445
CS:pref_useful: 332801
CS:pref_late: 7455
CS:misses: 28178
CS:misses_by_poll: 343

CPLX: 
CPLX:times selected: 7603117
CPLX:pref_filled: 832467
CPLX:pref_useful: 237630
CPLX:pref_late: 299912
CPLX:misses: 2235434
CPLX:misses_by_poll: 4336

NL_L1: 
NL:times selected: 29230
NL:pref_filled: 3976
NL:pref_useful: 1116
NL:pref_late: 1106
NL:misses: 13454
NL:misses_by_poll: 6

total selections: 16355098
total_filled: 2637426
total_useful: 769300
total_late: 572162
total_polluted: 4685
total_misses_after_warmup: 2447321
conflicts: 24884
Degree Incremented Times: 48337
Degree Decremented Times: 149484

L1 IP Table Write Accesses: 10954079
L1 IP Table Read Accesses: 10929195
L1 RST Write Accesses: 6904711
L1 RST Read Accesses: 13809422
L1 CSPT Write Accesses: 6904711
L1 CSPT Read Accesses: 13286094
L1 RR Filter Tag Write Accesses: 7059362
L1 RR Filter Tag Read Accesses: 362260401
L1 IP Table Tag Write Accesses: 11082638
L1 IP Table Tag Read Accesses: 11082638
L1 RST Tag Write Accesses: 0
L1 RST Tag Read Accesses: 65438859
L1 RR Filter Write Accesses: 0
L1 RR Filter Read Accesses: 12603243
test: 3234045
L2 IP Table Read Accesses: 8125325
L2 IP Table Write Accesses: 6659281
L2 IP Table Tag Read Accesses: 4085589
L2 IP Table Tag Write Accesses: 4085589

DRAM Statistics
 CHANNEL 0
 RQ ROW_BUFFER_HIT:    2722355  ROW_BUFFER_MISS:    1291104
 DBUS_CONGESTED:    3812311
 WQ ROW_BUFFER_HIT:      62919  ROW_BUFFER_MISS:     194296  FULL:          0

 AVG_CONGESTED_CYCLE: 37
 All warmup complete: 2
Channel 0 Bank busy for read cycles: 0
Channel 0 Bank busy for write cycles: 0
Channel 0
Rank 0
0banks busy for read cycles: 37444568
0banks busy for write cycles: 10967
1banks busy for read cycles: 27382622
1banks busy for write cycles: 2002923
2banks busy for read cycles: 18142150
2banks busy for write cycles: 1120851
3banks busy for read cycles: 13510418
3banks busy for write cycles: 827171
4banks busy for read cycles: 11462297
4banks busy for write cycles: 626251
5banks busy for read cycles: 12672571
5banks busy for write cycles: 542345
6banks busy for read cycles: 17746745
6banks busy for write cycles: 515452
7banks busy for read cycles: 35131655
7banks busy for write cycles: 1079984
8banks busy for read cycles: 53364949
8banks busy for write cycles: 12702633

CPU 0 Branch Prediction Accuracy: 98.3401% MPKI: 1.96794 Average ROB Occupancy at Mispredict: 175.03
Branch types
NOT_BRANCH: 44071945 88.1439%
BRANCH_DIRECT_JUMP: 638582 1.27716%
BRANCH_INDIRECT: 0 0%
BRANCH_CONDITIONAL: 5289321 10.5786%
BRANCH_DIRECT_CALL: 74 0.000148%
BRANCH_INDIRECT_CALL: 0 0%
BRANCH_RETURN: 74 0.000148%
BRANCH_OTHER: 0 0%

@sumon_overall_L1D    769300    688532   1868174   2637426  13919423  14018660
@Sumon_Early_by_class_L1D    216449    328609    223483      1086
@Sumon_Late_by_class_L1D    242670      7429    298802      1086

@Sumon_Early_by_cycle_L1D     95921    109463    123781     55970     46796    229985     35962     23797     21458     16453      7563      2151
@Sumon_Late_by_cycle_L1D    100466    135494    176987     93299     29850     13783       108         1         0         0         0         0
@Sumon_Early_stream_L1D     50740     52803     45938     14712      7576     21984      8396      4873      4486      3325       939       677
@Sumon_Early_CS_L1D     16117     12639     18622     21452     32329    187428     18875     11930      9012       205         0         0
@Sumon_Early_CPLX_L1D     28895     43852     59083     19766      6875     20500      8652      6955      7920     12895      6620      1470
@Sumon_Late_stream_L1D     61102     65336     67181     32597     10744      5665        45         0         0         0         0         0
@Sumon_Late_CS_L1D      4061      1767       909       327       155       207         3         0         0         0         0         0
@Sumon_Late_CPLX_L1D     34971     68119    108586     60257     18922      7886        60         1         0         0         0         0
@sumon_overall_L2C     19306      1061   2434596   2452806    861694    861694
@Sumon_Early_by_class_L2C      3149      4337      9892         0
@Sumon_Late_by_class_L2C         0       977         0         0

@Sumon_Early_by_cycle_L2C       171       326       684       459       435      1829       423       148       255      1304      3309      9963
@Sumon_Late_by_cycle_L2C       177       238       250       204       103        89         0         0         0         0         0         0
@Sumon_Early_stream_L2C         0         0         0         0         0         0         0         0         1       362       945      1841
@Sumon_Early_CS_L2C       171       323       682       459       434      1783       358        23        20        79         3         2
@Sumon_Early_CPLX_L2C         0         0         0         0         0         0         0         1         4       425      2067      7395
@Sumon_Late_stream_L2C         0         0         0         0         0         0         0         0         0         0         0         0
@Sumon_Late_CS_L2C       163       237       235       173        85        84         0         0         0         0         0         0
@Sumon_Late_CPLX_L2C         0         0         0         0         0         0         0         0         0         0         0         0
DRAM PAGES: 1048576
Allocated PAGES: 13946
