
*** ChampSim Multicore Out-of-Order Simulator ***

Warmup Instructions: 10000000
Simulation Instructions: 50000000
Number of CPUs: 1
LLC sets: 2048
LLC ways: 16
Off-chip DRAM Size: 4096 MB Channels: 1 Width: 64-bit Data Rate: 800 MT/s
CPU 0 runs traces/SPEC2017/620.omnetpp_s-874B.champsimtrace.xz
.xz
CPU 0 Bimodal branch predictor
BTB has LRU replacement policy
ITLB has LRU replacement policy
DTLB has LRU replacement policy
STLB has LRU replacement policy
L1I has LRU replacement policy
IP Table Entries: 256
L1D has LRU replacement policy
IP_Table L2 entries: 256
L2C has LRU replacement policy
LLC has LRU replacement policy
Heartbeat CPU 0 instructions: 10000001 cycles: 3907844 heartbeat IPC: 2.55896 cumulative IPC: 2.55896 (Simulation time: 0 hr 28 min 41 sec) 

Warmup complete CPU 0 instructions: 10000001 cycles: 3907844 (Simulation time: 0 hr 28 min 41 sec) 

Heartbeat CPU 0 instructions: 20000000 cycles: 50457229 heartbeat IPC: 0.214826 cumulative IPC: 0.214826 (Simulation time: 0 hr 56 min 14 sec) 
Heartbeat CPU 0 instructions: 30000002 cycles: 97008928 heartbeat IPC: 0.214815 cumulative IPC: 0.21482 (Simulation time: 1 hr 23 min 41 sec) 
Heartbeat CPU 0 instructions: 40000000 cycles: 144077471 heartbeat IPC: 0.212456 cumulative IPC: 0.214026 (Simulation time: 1 hr 50 min 47 sec) 
Heartbeat CPU 0 instructions: 50000001 cycles: 191155725 heartbeat IPC: 0.212412 cumulative IPC: 0.213621 (Simulation time: 2 hr 10 min 46 sec) 
Heartbeat CPU 0 instructions: 60000001 cycles: 238076891 heartbeat IPC: 0.213123 cumulative IPC: 0.213521 (Simulation time: 2 hr 22 min 54 sec) 
Finished CPU 0 instructions: 50000000 cycles: 234169047 cumulative IPC: 0.213521 (Simulation time: 2 hr 22 min 54 sec) 

ChampSim completed all CPUs

Region of Interest Statistics

CPU 0 cumulative IPC: 0.213521 instructions: 50000000 cycles: 234169047
ITLB TOTAL     ACCESS:    8266083  HIT:    8186456  MISS:      79627  HIT %:    99.0367  MISS %:   0.963298   MPKI: 1.59254
ITLB LOAD TRANSLATION ACCESS:    8266083  HIT:    8186456  MISS:      79627  HIT %:    99.0367  MISS %:   0.963298   MPKI: 1.59254
ITLB PREFETCH  REQUESTED:          0  ISSUED:          0  USEFUL:          0  USELESS:          0
ITLB USEFUL LOAD PREFETCHES:          0 PREFETCH ISSUED TO LOWER LEVEL:          0  ACCURACY: -nan
ITLB TIMELY PREFETCHES:          0 LATE PREFETCHES: 0 DROPPED PREFETCHES: 0
ITLB PREFETCHES SAME FILL-ORIGIN LEVEL: 0 DIFFERENT FILL-ORIGIN LEVEL: 0
ITLB AVERAGE MISS LATENCY: 10.2465 cycles
ITLB RQ	ACCESS:    9321309	FORWARD:          0	MERGED:    1030860	TO_CACHE:    8290449

DTLB TOTAL     ACCESS:   19552415  HIT:   18592974  MISS:     959441  HIT %:     95.093  MISS %:    4.90702   MPKI: 19.1888
DTLB LOAD TRANSLATION ACCESS:   19552415  HIT:   18592974  MISS:     959441  HIT %:     95.093  MISS %:    4.90702   MPKI: 19.1888
DTLB PREFETCH  REQUESTED:          0  ISSUED:          0  USEFUL:          0  USELESS:          0
DTLB USEFUL LOAD PREFETCHES:          0 PREFETCH ISSUED TO LOWER LEVEL:          0  ACCURACY: -nan
DTLB TIMELY PREFETCHES:          0 LATE PREFETCHES: 0 DROPPED PREFETCHES: 0
DTLB PREFETCHES SAME FILL-ORIGIN LEVEL: 0 DIFFERENT FILL-ORIGIN LEVEL: 0
DTLB AVERAGE MISS LATENCY: 35.42 cycles
DTLB RQ	ACCESS:   22029801	FORWARD:          0	MERGED:    2462162	TO_CACHE:   19567639

STLB TOTAL     ACCESS:    2861901  HIT:    2646150  MISS:     215751  HIT %:    92.4613  MISS %:    7.53873   MPKI: 4.31502
STLB LOAD TRANSLATION ACCESS:    1039068  HIT:     823317  MISS:     215751  HIT %:    79.2361  MISS %:    20.7639   MPKI: 4.31502
STLB TRANSLATION FROM L1D PREFETCHER ACCESS:    1822833  HIT:    1822833  MISS:          0  HIT %:        100  MISS %:          0   MPKI: 0
STLB PREFETCH  REQUESTED:          0  ISSUED:          0  USEFUL:          0  USELESS:          0
STLB USEFUL LOAD PREFETCHES:          0 PREFETCH ISSUED TO LOWER LEVEL:          0  ACCURACY: -nan
STLB TIMELY PREFETCHES:          0 LATE PREFETCHES: 0 DROPPED PREFETCHES: 0
STLB PREFETCHES SAME FILL-ORIGIN LEVEL: 0 DIFFERENT FILL-ORIGIN LEVEL: 0
STLB AVERAGE MISS LATENCY: 117.676 cycles
STLB RQ	ACCESS:    3289248	FORWARD:          0	MERGED:     427346	TO_CACHE:    2861902

STLB Hit, L1D data hit: 0
STLB Hit, L2C data hit: 0
STLB Hit, LLC data hit: 0
STLB Hit, LLC data miss: 0
STLB STLB hints to L2: 0
L1D TOTAL     ACCESS:   23928834  HIT:   22270580  MISS:    1658254  HIT %:    93.0701  MISS %:    6.92994   MPKI: 33.1651
L1D LOAD      ACCESS:   12715285  HIT:   11970302  MISS:     744983  HIT %:     94.141  MISS %:    5.85896   MPKI: 14.8997
L1D RFO       ACCESS:    9032562  HIT:    8923097  MISS:     109465  HIT %:    98.7881  MISS %:    1.21189   MPKI: 2.1893
L1D PREFETCH  ACCESS:    2180987  HIT:    1377181  MISS:     803806  HIT %:    63.1449  MISS %:    36.8551   MPKI: 16.0761
L1D PREFETCH  REQUESTED:    4500782  ISSUED:    4500777  USEFUL:     111386  USELESS:     692366
L1D USEFUL LOAD PREFETCHES:     111386 PREFETCH ISSUED TO LOWER LEVEL:     808945  ACCURACY: 13.7693
L1D TIMELY PREFETCHES:     111386 LATE PREFETCHES: 22893 DROPPED PREFETCHES: 0
L1D PREFETCHES SAME FILL-ORIGIN LEVEL: 808945 DIFFERENT FILL-ORIGIN LEVEL: 0
L1D AVERAGE MISS LATENCY: 385305 cycles
L1D RQ	ACCESS:   16246733	FORWARD:          0	MERGED:    2799959	TO_CACHE:   12823502
L1D WQ	ACCESS:    9281775	FORWARD:     623691	MERGED:      75476	TO_CACHE:    9206299
L1D PQ	ACCESS:    2250598	FORWARD:          0	MERGED:          0	TO_CACHE:    2250179

L1D UNIQUE REGIONS ACCESSED: 0
L1D REGIONS CONFLICTS: 0
L1D Cross Page Prefetch Requests: 0
L1D Same Page Prefetch Requests: 2672618
L1D ROI Sum of L1D PQ occupancy: 29223945
L1D PREFETCHES PUSHED FROM L2C: 0
L1I TOTAL     ACCESS:    9314855  HIT:    9296281  MISS:      18574  HIT %:    99.8006  MISS %:   0.199402   MPKI: 0.37148
L1I LOAD      ACCESS:    9314855  HIT:    9296281  MISS:      18574  HIT %:    99.8006  MISS %:   0.199402   MPKI: 0.37148
L1I PREFETCH  REQUESTED:          0  ISSUED:          0  USEFUL:          0  USELESS:          0
L1I USEFUL LOAD PREFETCHES:          0 PREFETCH ISSUED TO LOWER LEVEL:          0  ACCURACY: -nan
L1I TIMELY PREFETCHES:          0 LATE PREFETCHES: 0 DROPPED PREFETCHES: 0
L1I PREFETCHES SAME FILL-ORIGIN LEVEL: 0 DIFFERENT FILL-ORIGIN LEVEL: 0
L1I AVERAGE MISS LATENCY: 33.3578 cycles
L1I RQ	ACCESS:   14346995	FORWARD:          0	MERGED:    5025686	TO_CACHE:    9321309

BTB TOTAL     ACCESS:    7896296  HIT:    7421687  MISS:     474609  HIT %:    93.9895  MISS %:    6.01053   MPKI: 9.49218
BTB BRANCH_DIRECT_JUMP	ACCESS:     569513  HIT:     569409  MISS:        104
BTB BRANCH_INDIRECT	ACCESS:     168336  HIT:     146852  MISS:      21484
BTB BRANCH_CONDITIONAL	ACCESS:    4189086  HIT:    4188659  MISS:        427
BTB BRANCH_DIRECT_CALL	ACCESS:     886019  HIT:     885794  MISS:        225
BTB BRANCH_INDIRECT_CALL	ACCESS:     598662  HIT:     596661  MISS:       2001
BTB BRANCH_RETURN	ACCESS:    1484680  HIT:    1034312  MISS:     450368
BTB BRANCH_OTHER ACCESS:          0  HIT:          0  MISS:          0

L2C TOTAL     ACCESS:    2540122  HIT:    1199456  MISS:    1340666  HIT %:    47.2204  MISS %:    52.7796   MPKI: 26.8133
L2C LOAD      ACCESS:     763532  HIT:     261121  MISS:     502411  HIT %:    34.1991  MISS %:    65.8009   MPKI: 10.0482
L2C DATA LOAD MPKI: 9.93262
L2C INSTRUCTION LOAD MPKI: 0.1156
L2C RFO       ACCESS:     104319  HIT:      24038  MISS:      80281  HIT %:    23.0428  MISS %:    76.9572   MPKI: 1.60562
L2C PREFETCH  ACCESS:     888911  HIT:     270665  MISS:     618246  HIT %:    30.4491  MISS %:    69.5509   MPKI: 12.3649
L2C DATA PREFETCH MPKI: 12.3649
L2C INSTRUCTION PREFETCH MPKI: 0
L2C WRITEBACK ACCESS:     477755  HIT:     475948  MISS:       1807  HIT %:    99.6218  MISS %:   0.378227   MPKI: 0.03614
L2C LOAD TRANSLATION ACCESS:     305605  HIT:     167684  MISS:     137921  HIT %:    54.8695  MISS %:    45.1305   MPKI: 2.75842
L2C PREFETCH  REQUESTED:      85488  ISSUED:      85488  USEFUL:      42355  USELESS:     575864
L2C USEFUL LOAD PREFETCHES:      42355 PREFETCH ISSUED TO LOWER LEVEL:     619283  ACCURACY: 6.83936
L2C TIMELY PREFETCHES:      42355 LATE PREFETCHES: 1037 DROPPED PREFETCHES: 0
L2C PREFETCHES SAME FILL-ORIGIN LEVEL: 47623 DIFFERENT FILL-ORIGIN LEVEL: 0
L2C AVERAGE MISS LATENCY: 160.078 cycles
L2C RQ	ACCESS:    1173487	FORWARD:          0	MERGED:          0	TO_CACHE:    1173456
L2C WQ	ACCESS:     477755	FORWARD:         42	MERGED:          0	TO_CACHE:     477755
L2C PQ	ACCESS:     894433	FORWARD:          0	MERGED:       1734	TO_CACHE:     892688

L2C Instructions Evicting Data 4899
L2C Translations Evicting Data 123037
L2C Data Evicting Data 1067205
L2C Instructions Evicting Instructions 298
L2C Translations Evicting Instructions 575
L2C Data Evicting Instructions 4920
L2C Instructions Evicting Translations 583
L2C Translations Evicting Translations 14309
L2C Data Evicting Translations 123033
L2C Dense regions hint from L2: 0
PSCL5 TOTAL     ACCESS:     215751  HIT:     215751  MISS:          0  HIT %:        100  MISS %:          0   MPKI: 0
PSCL5 LOAD TRANSLATION ACCESS:     215751  HIT:     215751  MISS:          0  HIT %:        100  MISS %:          0   MPKI: 0
PSCL5 PREFETCH  REQUESTED:          0  ISSUED:          0  USEFUL:          0  USELESS:          0
PSCL5 USEFUL LOAD PREFETCHES:          0 PREFETCH ISSUED TO LOWER LEVEL:          0  ACCURACY: -nan
PSCL5 TIMELY PREFETCHES:          0 LATE PREFETCHES: 0 DROPPED PREFETCHES: 0
PSCL5 PREFETCHES SAME FILL-ORIGIN LEVEL: 0 DIFFERENT FILL-ORIGIN LEVEL: 0

PSCL4 TOTAL     ACCESS:     215751  HIT:     215751  MISS:          0  HIT %:        100  MISS %:          0   MPKI: 0
PSCL4 LOAD TRANSLATION ACCESS:     215751  HIT:     215751  MISS:          0  HIT %:        100  MISS %:          0   MPKI: 0
PSCL4 PREFETCH  REQUESTED:          0  ISSUED:          0  USEFUL:          0  USELESS:          0
PSCL4 USEFUL LOAD PREFETCHES:          0 PREFETCH ISSUED TO LOWER LEVEL:          0  ACCURACY: -nan
PSCL4 TIMELY PREFETCHES:          0 LATE PREFETCHES: 0 DROPPED PREFETCHES: 0
PSCL4 PREFETCHES SAME FILL-ORIGIN LEVEL: 0 DIFFERENT FILL-ORIGIN LEVEL: 0

PSCL3 TOTAL     ACCESS:     215751  HIT:     215751  MISS:          0  HIT %:        100  MISS %:          0   MPKI: 0
PSCL3 LOAD TRANSLATION ACCESS:     215751  HIT:     215751  MISS:          0  HIT %:        100  MISS %:          0   MPKI: 0
PSCL3 PREFETCH  REQUESTED:          0  ISSUED:          0  USEFUL:          0  USELESS:          0
PSCL3 USEFUL LOAD PREFETCHES:          0 PREFETCH ISSUED TO LOWER LEVEL:          0  ACCURACY: -nan
PSCL3 TIMELY PREFETCHES:          0 LATE PREFETCHES: 0 DROPPED PREFETCHES: 0
PSCL3 PREFETCHES SAME FILL-ORIGIN LEVEL: 0 DIFFERENT FILL-ORIGIN LEVEL: 0

PSCL2 TOTAL     ACCESS:     215751  HIT:     125897  MISS:      89854  HIT %:    58.3529  MISS %:    41.6471   MPKI: 1.79708
PSCL2 LOAD TRANSLATION ACCESS:     215751  HIT:     125897  MISS:      89854  HIT %:    58.3529  MISS %:    41.6471   MPKI: 1.79708
PSCL2 PREFETCH  REQUESTED:          0  ISSUED:          0  USEFUL:          0  USELESS:          0
PSCL2 USEFUL LOAD PREFETCHES:          0 PREFETCH ISSUED TO LOWER LEVEL:          0  ACCURACY: -nan
PSCL2 TIMELY PREFETCHES:          0 LATE PREFETCHES: 0 DROPPED PREFETCHES: 0
PSCL2 PREFETCHES SAME FILL-ORIGIN LEVEL: 0 DIFFERENT FILL-ORIGIN LEVEL: 0

LLC TOTAL     ACCESS:    1695899  HIT:     738504  MISS:     957395  HIT %:    43.5465  MISS %:    56.4535   MPKI: 19.1479
LLC LOAD      ACCESS:     501454  HIT:     137601  MISS:     363853  HIT %:    27.4404  MISS %:    72.5596   MPKI: 7.27706
LLC RFO       ACCESS:      80201  HIT:      31197  MISS:      49004  HIT %:    38.8985  MISS %:    61.1015   MPKI: 0.98008
LLC PREFETCH  ACCESS:     619283  HIT:     136024  MISS:     483259  HIT %:    21.9648  MISS %:    78.0352   MPKI: 9.66518
LLC WRITEBACK ACCESS:     357040  HIT:     354553  MISS:       2487  HIT %:    99.3034  MISS %:   0.696561   MPKI: 0.04974
LLC LOAD TRANSLATION ACCESS:     137921  HIT:      79129  MISS:      58792  HIT %:    57.3727  MISS %:    42.6273   MPKI: 1.17584
LLC PREFETCH  REQUESTED:          0  ISSUED:          0  USEFUL:      26255  USELESS:     456967
LLC USEFUL LOAD PREFETCHES:      26255 PREFETCH ISSUED TO LOWER LEVEL:     483259  ACCURACY: 5.4329
LLC TIMELY PREFETCHES:      26255 LATE PREFETCHES: 0 DROPPED PREFETCHES: 0
LLC PREFETCHES SAME FILL-ORIGIN LEVEL: 0 DIFFERENT FILL-ORIGIN LEVEL: 0
LLC AVERAGE MISS LATENCY: 181.771 cycles
LLC RQ	ACCESS:     719576	FORWARD:          0	MERGED:          0	TO_CACHE:     719576
LLC WQ	ACCESS:     357040	FORWARD:          0	MERGED:          0	TO_CACHE:     357040
LLC PQ	ACCESS:     619283	FORWARD:          0	MERGED:          0	TO_CACHE:     619283

LLC Dense regions hint to LLC: 0

RAW hits: 642327
Loads Generated: 16889060
Loads sent to L1D: 16246733
Stores Generated: 9281774
Stores sent to L1D: 9281775
Major fault: 0 Minor fault: 45883
Allocated PAGES: 45883

stream: 
stream:times selected: 4000521
stream:pref_filled: 632086
stream:pref_useful: 115438
stream:pref_late: 15689
stream:misses: 151463
stream:misses_by_poll: 0

CS: 
CS:times selected: 32424
CS:pref_filled: 12313
CS:pref_useful: 1961
CS:pref_late: 1
CS:misses: 764
CS:misses_by_poll: 2

CPLX: 
CPLX:times selected: 3971115
CPLX:pref_filled: 302766
CPLX:pref_useful: 14342
CPLX:pref_late: 663
CPLX:misses: 488705
CPLX:misses_by_poll: 629

NL_L1: 
NL:times selected: 17402
NL:pref_filled: 6297
NL:pref_useful: 1233
NL:pref_late: 198
NL:misses: 5292
NL:misses_by_poll: 0

total selections: 8021462
total_filled: 803806
total_useful: 111386
total_late: 16637
total_polluted: 631
total_misses_after_warmup: 853198
conflicts: 1774651
Degree Incremented Times: 0
Degree Decremented Times: 286643

L1 IP Table Write Accesses: 9541975
L1 IP Table Read Accesses: 7767324
L1 RST Write Accesses: 3426390
L1 RST Read Accesses: 6852780
L1 CSPT Write Accesses: 3426390
L1 CSPT Read Accesses: 6826820
L1 RR Filter Tag Write Accesses: 2250603
L1 RR Filter Tag Read Accesses: 127633628
L1 IP Table Tag Write Accesses: 12823500
L1 IP Table Tag Read Accesses: 12823500
L1 RST Tag Write Accesses: 0
L1 RST Tag Read Accesses: 29521549
L1 RR Filter Write Accesses: 0
L1 RR Filter Read Accesses: 4403454
test: 1931687
L2 IP Table Read Accesses: 3015182
L2 IP Table Write Accesses: 2374105
L2 IP Table Tag Read Accesses: 1550827
L2 IP Table Tag Write Accesses: 1550827

DRAM Statistics
 CHANNEL 0
 RQ ROW_BUFFER_HIT:     107665  ROW_BUFFER_MISS:     847238
 DBUS_CONGESTED:     530212
 WQ ROW_BUFFER_HIT:      65716  ROW_BUFFER_MISS:     189532  FULL:          0

 AVG_CONGESTED_CYCLE: 30
 All warmup complete: 2
Channel 0 Bank busy for read cycles: 0
Channel 0 Bank busy for write cycles: 0
Channel 0
Rank 0
0banks busy for read cycles: 111238528
0banks busy for write cycles: 117307
1banks busy for read cycles: 47987811
1banks busy for write cycles: 18323066
2banks busy for read cycles: 26172886
2banks busy for write cycles: 8712427
3banks busy for read cycles: 9123426
3banks busy for write cycles: 4234751
4banks busy for read cycles: 3395802
4banks busy for write cycles: 2052999
5banks busy for read cycles: 1004554
5banks busy for write cycles: 937375
6banks busy for read cycles: 227936
6banks busy for write cycles: 394010
7banks busy for read cycles: 38233
7banks busy for write cycles: 141737
8banks busy for read cycles: 6920
8banks busy for write cycles: 59280

CPU 0 Branch Prediction Accuracy: 95.851% MPKI: 8.63412 Average ROB Occupancy at Mispredict: 29.469
Branch types
NOT_BRANCH: 39594523 79.189%
BRANCH_DIRECT_JUMP: 569513 1.13903%
BRANCH_INDIRECT: 168336 0.336672%
BRANCH_CONDITIONAL: 6697939 13.3959%
BRANCH_DIRECT_CALL: 886019 1.77204%
BRANCH_INDIRECT_CALL: 598662 1.19732%
BRANCH_RETURN: 1484680 2.96936%
BRANCH_OTHER: 0 0%

@sumon_overall_L1D    111386     22893    692366    803806   4500777   4500782
@Sumon_Early_by_class_L1D     95717      1612     12241       143
@Sumon_Late_by_class_L1D     12469         0       582       143

@Sumon_Early_by_cycle_L1D     18616      7878      5593      4493      1878     15275     16793      8341      5713     11982      8410      6414
@Sumon_Late_by_cycle_L1D      7450      5402       413         1         0         0         0         0         0         0         0         0
@Sumon_Early_stream_L1D     17636      7101      4744      3899      1544     13329     14699      6819      4443      9576      6575      5352
@Sumon_Early_CS_L1D         1        21        57        22         6         4       764       179       239       238        33        48
@Sumon_Early_CPLX_L1D       551       463       720       466       296      1697      1061      1239       989      2053      1737       969
@Sumon_Late_stream_L1D      6958      5155       355         1         0         0         0         0         0         0         0         0
@Sumon_Late_CS_L1D         0         0         0         0         0         0         0         0         0         0         0         0
@Sumon_Late_CPLX_L1D       372       158        52         0         0         0         0         0         0         0         0         0
@sumon_overall_L2C     42355      1037    575864    618246     85488     85488
@Sumon_Early_by_class_L2C     23743        92      7432         0
@Sumon_Late_by_class_L2C         0         0         0         0

@Sumon_Early_by_cycle_L2C       659       939       480       569       384      2517      2531       537      1190       325      1820     30404
@Sumon_Late_by_cycle_L2C       654       248       135         0         0         0         0         0         0         0         0         0
@Sumon_Early_stream_L2C         0         0         0         0         0         0         0         0         1        82      1226     22434
@Sumon_Early_CS_L2C         0         0         0         0         0         0         0         0         0         0        12        80
@Sumon_Early_CPLX_L2C         0         0         0         0         0         0         0         0         0        24       361      7047
@Sumon_Late_stream_L2C         0         0         0         0         0         0         0         0         0         0         0         0
@Sumon_Late_CS_L2C         0         0         0         0         0         0         0         0         0         0         0         0
@Sumon_Late_CPLX_L2C         0         0         0         0         0         0         0         0         0         0         0         0
DRAM PAGES: 1048576
Allocated PAGES: 45883
