
*** ChampSim Multicore Out-of-Order Simulator ***

Warmup Instructions: 10000000
Simulation Instructions: 50000000
Number of CPUs: 1
LLC sets: 2048
LLC ways: 16
Off-chip DRAM Size: 4096 MB Channels: 1 Width: 64-bit Data Rate: 800 MT/s
CPU 0 runs traces/SPEC2017/654.roms_s-1613B.champsimtrace.xz
.xz
CPU 0 Bimodal branch predictor
BTB has LRU replacement policy
ITLB has LRU replacement policy
DTLB has LRU replacement policy
STLB has LRU replacement policy
L1I has LRU replacement policy
IP Table Entries: 256
L1D has LRU replacement policy
IP_Table L2 entries: 256
L2C has LRU replacement policy
LLC has LRU replacement policy
Heartbeat CPU 0 instructions: 10000001 cycles: 2910547 heartbeat IPC: 3.43578 cumulative IPC: 3.43578 (Simulation time: 0 hr 20 min 11 sec) 

Warmup complete CPU 0 instructions: 10000001 cycles: 2910547 (Simulation time: 0 hr 20 min 11 sec) 

Heartbeat CPU 0 instructions: 20000003 cycles: 19553186 heartbeat IPC: 0.600866 cumulative IPC: 0.600866 (Simulation time: 0 hr 37 min 7 sec) 
Heartbeat CPU 0 instructions: 30000003 cycles: 36195271 heartbeat IPC: 0.600886 cumulative IPC: 0.600876 (Simulation time: 0 hr 53 min 48 sec) 
Heartbeat CPU 0 instructions: 40000000 cycles: 52841259 heartbeat IPC: 0.600745 cumulative IPC: 0.600833 (Simulation time: 1 hr 10 min 24 sec) 
Heartbeat CPU 0 instructions: 50000001 cycles: 77784221 heartbeat IPC: 0.400915 cumulative IPC: 0.534233 (Simulation time: 1 hr 35 min 46 sec) 
Heartbeat CPU 0 instructions: 60000001 cycles: 94463246 heartbeat IPC: 0.599555 cumulative IPC: 0.546134 (Simulation time: 1 hr 51 min 45 sec) 
Finished CPU 0 instructions: 50000000 cycles: 91552699 cumulative IPC: 0.546134 (Simulation time: 1 hr 51 min 45 sec) 

ChampSim completed all CPUs

Region of Interest Statistics

CPU 0 cumulative IPC: 0.546134 instructions: 50000000 cycles: 91552699
ITLB TOTAL     ACCESS:    7745457  HIT:    7745442  MISS:         15  HIT %:    99.9998  MISS %: 0.000193662   MPKI: 0.0003
ITLB LOAD TRANSLATION ACCESS:    7745457  HIT:    7745442  MISS:         15  HIT %:    99.9998  MISS %: 0.000193662   MPKI: 0.0003
ITLB PREFETCH  REQUESTED:          0  ISSUED:          0  USEFUL:          0  USELESS:          0
ITLB USEFUL LOAD PREFETCHES:          0 PREFETCH ISSUED TO LOWER LEVEL:          0  ACCURACY: -nan
ITLB TIMELY PREFETCHES:          0 LATE PREFETCHES: 0 DROPPED PREFETCHES: 0
ITLB PREFETCHES SAME FILL-ORIGIN LEVEL: 0 DIFFERENT FILL-ORIGIN LEVEL: 0
ITLB AVERAGE MISS LATENCY: 294.533 cycles
ITLB RQ	ACCESS:   10003605	FORWARD:          0	MERGED:    2258148	TO_CACHE:    7745457

DTLB TOTAL     ACCESS:   10632630  HIT:   10627793  MISS:       4837  HIT %:    99.9545  MISS %:   0.045492   MPKI: 0.09674
DTLB LOAD TRANSLATION ACCESS:   10632630  HIT:   10627793  MISS:       4837  HIT %:    99.9545  MISS %:   0.045492   MPKI: 0.09674
DTLB PREFETCH  REQUESTED:          0  ISSUED:          0  USEFUL:          0  USELESS:          0
DTLB USEFUL LOAD PREFETCHES:          0 PREFETCH ISSUED TO LOWER LEVEL:          0  ACCURACY: -nan
DTLB TIMELY PREFETCHES:          0 LATE PREFETCHES: 0 DROPPED PREFETCHES: 0
DTLB PREFETCHES SAME FILL-ORIGIN LEVEL: 0 DIFFERENT FILL-ORIGIN LEVEL: 0
DTLB AVERAGE MISS LATENCY: 272.127 cycles
DTLB RQ	ACCESS:   12665557	FORWARD:          0	MERGED:    2025959	TO_CACHE:   10639598

STLB TOTAL     ACCESS:     299793  HIT:     295233  MISS:       4560  HIT %:     98.479  MISS %:    1.52105   MPKI: 0.0912
STLB LOAD TRANSLATION ACCESS:       4852  HIT:        293  MISS:       4559  HIT %:    6.03875  MISS %:    93.9613   MPKI: 0.09118
STLB TRANSLATION FROM L1D PREFETCHER ACCESS:     294941  HIT:     294940  MISS:          1  HIT %:    99.9997  MISS %: 0.000339051   MPKI: 2e-05
STLB PREFETCH  REQUESTED:          0  ISSUED:          0  USEFUL:          1  USELESS:          0
STLB USEFUL LOAD PREFETCHES:          1 PREFETCH ISSUED TO LOWER LEVEL:          0  ACCURACY: inf
STLB TIMELY PREFETCHES:          1 LATE PREFETCHES: 0 DROPPED PREFETCHES: 0
STLB PREFETCHES SAME FILL-ORIGIN LEVEL: 0 DIFFERENT FILL-ORIGIN LEVEL: 0
STLB AVERAGE MISS LATENCY: 279.99 cycles
STLB RQ	ACCESS:    1307286	FORWARD:          0	MERGED:    1007492	TO_CACHE:     299794

STLB Hit, L1D data hit: 0
STLB Hit, L2C data hit: 0
STLB Hit, LLC data hit: 0
STLB Hit, LLC data miss: 0
STLB STLB hints to L2: 0
L1D TOTAL     ACCESS:   13359113  HIT:   13128635  MISS:     230478  HIT %:    98.2748  MISS %:    1.72525   MPKI: 4.60956
L1D LOAD      ACCESS:    7304024  HIT:    7291817  MISS:      12207  HIT %:    99.8329  MISS %:   0.167127   MPKI: 0.24414
L1D RFO       ACCESS:    4760652  HIT:    4672168  MISS:      88484  HIT %:    98.1413  MISS %:    1.85865   MPKI: 1.76968
L1D PREFETCH  ACCESS:    1294437  HIT:    1164650  MISS:     129787  HIT %:    89.9735  MISS %:    10.0265   MPKI: 2.59574
L1D PREFETCH  REQUESTED:    2605574  ISSUED:    2604869  USEFUL:      92855  USELESS:      36951
L1D USEFUL LOAD PREFETCHES:      92855 PREFETCH ISSUED TO LOWER LEVEL:     129787  ACCURACY: 71.5441
L1D TIMELY PREFETCHES:      92855 LATE PREFETCHES: 138273 DROPPED PREFETCHES: 0
L1D PREFETCHES SAME FILL-ORIGIN LEVEL: 129787 DIFFERENT FILL-ORIGIN LEVEL: 0
L1D AVERAGE MISS LATENCY: 607.586 cycles
L1D RQ	ACCESS:   10183667	FORWARD:          0	MERGED:    2727412	TO_CACHE:    7450033
L1D WQ	ACCESS:    5563751	FORWARD:       6223	MERGED:     348227	TO_CACHE:    5215524
L1D PQ	ACCESS:    1302435	FORWARD:          0	MERGED:          0	TO_CACHE:    1302434

L1D UNIQUE REGIONS ACCESSED: 0
L1D REGIONS CONFLICTS: 0
L1D Cross Page Prefetch Requests: 0
L1D Same Page Prefetch Requests: 1587414
L1D ROI Sum of L1D PQ occupancy: 50557729
L1D PREFETCHES PUSHED FROM L2C: 0
L1I TOTAL     ACCESS:   10003558  HIT:   10003381  MISS:        177  HIT %:    99.9982  MISS %: 0.00176937   MPKI: 0.00354
L1I LOAD      ACCESS:   10003558  HIT:   10003381  MISS:        177  HIT %:    99.9982  MISS %: 0.00176937   MPKI: 0.00354
L1I PREFETCH  REQUESTED:          0  ISSUED:          0  USEFUL:          0  USELESS:          0
L1I USEFUL LOAD PREFETCHES:          0 PREFETCH ISSUED TO LOWER LEVEL:          0  ACCURACY: -nan
L1I TIMELY PREFETCHES:          0 LATE PREFETCHES: 0 DROPPED PREFETCHES: 0
L1I PREFETCHES SAME FILL-ORIGIN LEVEL: 0 DIFFERENT FILL-ORIGIN LEVEL: 0
L1I AVERAGE MISS LATENCY: 224.898 cycles
L1I RQ	ACCESS:   14523217	FORWARD:          0	MERGED:    4519612	TO_CACHE:   10003605

BTB TOTAL     ACCESS:    3115019  HIT:    2767458  MISS:     347561  HIT %:    88.8424  MISS %:    11.1576   MPKI: 6.95122
BTB BRANCH_DIRECT_JUMP	ACCESS:     347719  HIT:     347681  MISS:         38
BTB BRANCH_INDIRECT	ACCESS:         16  HIT:         15  MISS:          1
BTB BRANCH_CONDITIONAL	ACCESS:    1377020  HIT:    1376893  MISS:        127
BTB BRANCH_DIRECT_CALL	ACCESS:     695131  HIT:     695086  MISS:         45
BTB BRANCH_INDIRECT_CALL	ACCESS:          0  HIT:          0  MISS:          0
BTB BRANCH_RETURN	ACCESS:     695133  HIT:     347783  MISS:     347350
BTB BRANCH_OTHER ACCESS:          0  HIT:          0  MISS:          0

L2C TOTAL     ACCESS:     505025  HIT:     269586  MISS:     235439  HIT %:    53.3807  MISS %:    46.6193   MPKI: 4.70878
L2C LOAD      ACCESS:      12384  HIT:       2021  MISS:      10363  HIT %:    16.3194  MISS %:    83.6806   MPKI: 0.20726
L2C DATA LOAD MPKI: 0.20372
L2C INSTRUCTION LOAD MPKI: 0.00354
L2C RFO       ACCESS:      88484  HIT:          2  MISS:      88482  HIT %:  0.0022603  MISS %:    99.9977   MPKI: 1.76964
L2C PREFETCH  ACCESS:     311077  HIT:     175583  MISS:     135494  HIT %:    56.4436  MISS %:    43.5564   MPKI: 2.70988
L2C DATA PREFETCH MPKI: 2.70988
L2C INSTRUCTION PREFETCH MPKI: 0
L2C WRITEBACK ACCESS:      88520  HIT:      88320  MISS:        200  HIT %:    99.7741  MISS %:   0.225938   MPKI: 0.004
L2C LOAD TRANSLATION ACCESS:       4559  HIT:       3659  MISS:        900  HIT %:    80.2588  MISS %:    19.7412   MPKI: 0.018
L2C TRANSLATION FROM L1D PREFETCHER ACCESS:          1  HIT:          1  MISS:          0  HIT %:        100  MISS %:          0   MPKI: 0
L2C PREFETCH  REQUESTED:     322888  ISSUED:     322872  USEFUL:       2022  USELESS:     132791
L2C USEFUL LOAD PREFETCHES:       2022 PREFETCH ISSUED TO LOWER LEVEL:     139331  ACCURACY: 1.45122
L2C TIMELY PREFETCHES:       2022 LATE PREFETCHES: 3837 DROPPED PREFETCHES: 0
L2C PREFETCHES SAME FILL-ORIGIN LEVEL: 97453 DIFFERENT FILL-ORIGIN LEVEL: 0
L2C AVERAGE MISS LATENCY: 758.663 cycles
L2C RQ	ACCESS:     105428	FORWARD:          0	MERGED:          0	TO_CACHE:     105428
L2C WQ	ACCESS:      88520	FORWARD:          0	MERGED:          0	TO_CACHE:      88520
L2C PQ	ACCESS:     452659	FORWARD:          0	MERGED:      32548	TO_CACHE:     420111

L2C Instructions Evicting Data 175
L2C Translations Evicting Data 894
L2C Data Evicting Data 233068
L2C Instructions Evicting Instructions 0
L2C Translations Evicting Instructions 2
L2C Data Evicting Instructions 106
L2C Instructions Evicting Translations 2
L2C Translations Evicting Translations 3
L2C Data Evicting Translations 903
L2C Dense regions hint from L2: 0
PSCL5 TOTAL     ACCESS:       4560  HIT:       4560  MISS:          0  HIT %:        100  MISS %:          0   MPKI: 0
PSCL5 LOAD TRANSLATION ACCESS:       4559  HIT:       4559  MISS:          0  HIT %:        100  MISS %:          0   MPKI: 0
PSCL5 TRANSLATION FROM L1D PREFETCHER ACCESS:          1  HIT:          1  MISS:          0  HIT %:        100  MISS %:          0   MPKI: 0
PSCL5 PREFETCH  REQUESTED:          0  ISSUED:          0  USEFUL:          0  USELESS:          0
PSCL5 USEFUL LOAD PREFETCHES:          0 PREFETCH ISSUED TO LOWER LEVEL:          0  ACCURACY: -nan
PSCL5 TIMELY PREFETCHES:          0 LATE PREFETCHES: 0 DROPPED PREFETCHES: 0
PSCL5 PREFETCHES SAME FILL-ORIGIN LEVEL: 0 DIFFERENT FILL-ORIGIN LEVEL: 0

PSCL4 TOTAL     ACCESS:       4560  HIT:       4560  MISS:          0  HIT %:        100  MISS %:          0   MPKI: 0
PSCL4 LOAD TRANSLATION ACCESS:       4559  HIT:       4559  MISS:          0  HIT %:        100  MISS %:          0   MPKI: 0
PSCL4 TRANSLATION FROM L1D PREFETCHER ACCESS:          1  HIT:          1  MISS:          0  HIT %:        100  MISS %:          0   MPKI: 0
PSCL4 PREFETCH  REQUESTED:          0  ISSUED:          0  USEFUL:          0  USELESS:          0
PSCL4 USEFUL LOAD PREFETCHES:          0 PREFETCH ISSUED TO LOWER LEVEL:          0  ACCURACY: -nan
PSCL4 TIMELY PREFETCHES:          0 LATE PREFETCHES: 0 DROPPED PREFETCHES: 0
PSCL4 PREFETCHES SAME FILL-ORIGIN LEVEL: 0 DIFFERENT FILL-ORIGIN LEVEL: 0

PSCL3 TOTAL     ACCESS:       4560  HIT:       4558  MISS:          2  HIT %:    99.9561  MISS %:  0.0438596   MPKI: 4e-05
PSCL3 LOAD TRANSLATION ACCESS:       4559  HIT:       4557  MISS:          2  HIT %:    99.9561  MISS %:  0.0438693   MPKI: 4e-05
PSCL3 TRANSLATION FROM L1D PREFETCHER ACCESS:          1  HIT:          1  MISS:          0  HIT %:        100  MISS %:          0   MPKI: 0
PSCL3 PREFETCH  REQUESTED:          0  ISSUED:          0  USEFUL:          0  USELESS:          0
PSCL3 USEFUL LOAD PREFETCHES:          0 PREFETCH ISSUED TO LOWER LEVEL:          0  ACCURACY: -nan
PSCL3 TIMELY PREFETCHES:          0 LATE PREFETCHES: 0 DROPPED PREFETCHES: 0
PSCL3 PREFETCHES SAME FILL-ORIGIN LEVEL: 0 DIFFERENT FILL-ORIGIN LEVEL: 0

PSCL2 TOTAL     ACCESS:       4560  HIT:       4545  MISS:         15  HIT %:    99.6711  MISS %:   0.328947   MPKI: 0.0003
PSCL2 LOAD TRANSLATION ACCESS:       4559  HIT:       4544  MISS:         15  HIT %:     99.671  MISS %:    0.32902   MPKI: 0.0003
PSCL2 TRANSLATION FROM L1D PREFETCHER ACCESS:          1  HIT:          1  MISS:          0  HIT %:        100  MISS %:          0   MPKI: 0
PSCL2 PREFETCH  REQUESTED:          0  ISSUED:          0  USEFUL:          0  USELESS:          0
PSCL2 USEFUL LOAD PREFETCHES:          0 PREFETCH ISSUED TO LOWER LEVEL:          0  ACCURACY: -nan
PSCL2 TIMELY PREFETCHES:          0 LATE PREFETCHES: 0 DROPPED PREFETCHES: 0
PSCL2 PREFETCHES SAME FILL-ORIGIN LEVEL: 0 DIFFERENT FILL-ORIGIN LEVEL: 0

LLC TOTAL     ACCESS:     324452  HIT:      89049  MISS:     235403  HIT %:     27.446  MISS %:     72.554   MPKI: 4.70806
LLC LOAD      ACCESS:       6526  HIT:          3  MISS:       6523  HIT %:    0.04597  MISS %:     99.954   MPKI: 0.13046
LLC RFO       ACCESS:      88482  HIT:          1  MISS:      88481  HIT %: 0.00113017  MISS %:    99.9989   MPKI: 1.76962
LLC PREFETCH  ACCESS:     139331  HIT:         26  MISS:     139305  HIT %:  0.0186606  MISS %:    99.9813   MPKI: 2.7861
LLC WRITEBACK ACCESS:      89213  HIT:      89013  MISS:        200  HIT %:    99.7758  MISS %:   0.224183   MPKI: 0.004
LLC LOAD TRANSLATION ACCESS:        900  HIT:          6  MISS:        894  HIT %:   0.666667  MISS %:    99.3333   MPKI: 0.01788
LLC PREFETCH  REQUESTED:          0  ISSUED:          0  USEFUL:          2  USELESS:     127075
LLC USEFUL LOAD PREFETCHES:          2 PREFETCH ISSUED TO LOWER LEVEL:     139305  ACCURACY: 0.0014357
LLC TIMELY PREFETCHES:          2 LATE PREFETCHES: 0 DROPPED PREFETCHES: 0
LLC PREFETCHES SAME FILL-ORIGIN LEVEL: 0 DIFFERENT FILL-ORIGIN LEVEL: 0
LLC AVERAGE MISS LATENCY: 739.789 cycles
LLC RQ	ACCESS:      95908	FORWARD:          0	MERGED:          0	TO_CACHE:      95908
LLC WQ	ACCESS:      89213	FORWARD:          0	MERGED:          0	TO_CACHE:      89213
LLC PQ	ACCESS:     139331	FORWARD:          0	MERGED:          0	TO_CACHE:     139331

LLC Dense regions hint to LLC: 0

RAW hits: 1383410
Loads Generated: 11567078
Loads sent to L1D: 10183667
Stores Generated: 5563751
Stores sent to L1D: 5563751
Major fault: 0 Minor fault: 4303
Allocated PAGES: 4303

stream: 
stream:times selected: 1112725
stream:pref_filled: 131389
stream:pref_useful: 94501
stream:pref_late: 33525
stream:misses: 122
stream:misses_by_poll: 0

CS: 
CS:times selected: 228908
CS:pref_filled: 5431
CS:pref_useful: 5229
CS:pref_late: 112
CS:misses: 149568
CS:misses_by_poll: 13

CPLX: 
CPLX:times selected: 883726
CPLX:pref_filled: 332
CPLX:pref_useful: 23
CPLX:pref_late: 21
CPLX:misses: 8734
CPLX:misses_by_poll: 1

NL_L1: 
NL:times selected: 15
NL:pref_filled: 3
NL:pref_useful: 3
NL:pref_late: 0
NL:misses: 4
NL:misses_by_poll: 0

total selections: 2225374
total_filled: 129787
total_useful: 92855
total_late: 33658
total_polluted: 14
total_misses_after_warmup: 158215
conflicts: 387
Degree Incremented Times: 53884
Degree Decremented Times: 1

L1 IP Table Write Accesses: 7101724
L1 IP Table Read Accesses: 7101337
L1 RST Write Accesses: 892160
L1 RST Read Accesses: 1784320
L1 CSPT Write Accesses: 892160
L1 CSPT Read Accesses: 2769874
L1 RR Filter Tag Write Accesses: 1303140
L1 RR Filter Tag Read Accesses: 154523372
L1 IP Table Tag Write Accesses: 7450032
L1 IP Table Tag Read Accesses: 7450032
L1 RST Tag Write Accesses: 0
L1 RST Tag Read Accesses: 9064808
L1 RR Filter Write Accesses: 0
L1 RR Filter Read Accesses: 7116167
test: 469959
L2 IP Table Read Accesses: 171399
L2 IP Table Write Accesses: 159340
L2 IP Table Tag Read Accesses: 85746
L2 IP Table Tag Write Accesses: 85746

DRAM Statistics
 CHANNEL 0
 RQ ROW_BUFFER_HIT:     101578  ROW_BUFFER_MISS:     133625
 DBUS_CONGESTED:     236495
 WQ ROW_BUFFER_HIT:       9874  ROW_BUFFER_MISS:      72392  FULL:          0

 AVG_CONGESTED_CYCLE: 38
 All warmup complete: 2
Channel 0 Bank busy for read cycles: 0
Channel 0 Bank busy for write cycles: 0
Channel 0
Rank 0
0banks busy for read cycles: 72389565
0banks busy for write cycles: 9903
1banks busy for read cycles: 5048521
1banks busy for write cycles: 1517158
2banks busy for read cycles: 798070
2banks busy for write cycles: 78066
3banks busy for read cycles: 410251
3banks busy for write cycles: 38876
4banks busy for read cycles: 330485
4banks busy for write cycles: 38392
5banks busy for read cycles: 396865
5banks busy for write cycles: 35086
6banks busy for read cycles: 504746
6banks busy for write cycles: 34621
7banks busy for read cycles: 969195
7banks busy for write cycles: 108464
8banks busy for read cycles: 5251700
8banks busy for write cycles: 3592736

CPU 0 Branch Prediction Accuracy: 99.9515% MPKI: 0.04976 Average ROB Occupancy at Mispredict: 44.5977
Branch types
NOT_BRANCH: 44864579 89.7292%
BRANCH_DIRECT_JUMP: 347719 0.695438%
BRANCH_INDIRECT: 16 3.2e-05%
BRANCH_CONDITIONAL: 3397101 6.7942%
BRANCH_DIRECT_CALL: 695131 1.39026%
BRANCH_INDIRECT_CALL: 0 0%
BRANCH_RETURN: 695133 1.39027%
BRANCH_OTHER: 0 0%

@sumon_overall_L1D     92855    138273     36951    129787   2604869   2605574
@Sumon_Early_by_class_L1D     88302      4530        23         0
@Sumon_Late_by_class_L1D     33524       110        21         0

@Sumon_Early_by_cycle_L1D     10382      8080     12515      8380     18483     13380       443       381      4584     16196         2        29
@Sumon_Late_by_cycle_L1D      9592      5779      5677      3949      2728      4904       953        71         2         0         0         0
@Sumon_Early_stream_L1D     10281      8022     12412      8313     17544     13365       386       289      1473     16194         2        21
@Sumon_Early_CS_L1D        95        55       101        66       939        15        56        92      3111         0         0         0
@Sumon_Early_CPLX_L1D         6         3         2         1         0         0         1         0         0         2         0         8
@Sumon_Late_stream_L1D      9519      5747      5666      3945      2724      4898       952        71         2         0         0         0
@Sumon_Late_CS_L1D        69        26         8         1         2         3         1         0         0         0         0         0
@Sumon_Late_CPLX_L1D         4         6         3         3         2         3         0         0         0         0         0         0
@sumon_overall_L2C      2022      3837    132791    135494    322872    322888
@Sumon_Early_by_class_L2C      1989        22         6         0
@Sumon_Late_by_class_L2C      3831         3         0         0

@Sumon_Early_by_cycle_L2C       283       556       487        62       330       175        19         2        12        82         0        14
@Sumon_Late_by_cycle_L2C       453       637       642       501       412      1119        73         0         0         0         0         0
@Sumon_Early_stream_L2C       281       556       487        61       327       172        18         1         0        78         0         8
@Sumon_Early_CS_L2C         0         0         0         1         3         2         1         1        10         4         0         0
@Sumon_Early_CPLX_L2C         0         0         0         0         0         0         0         0         0         0         0         6
@Sumon_Late_stream_L2C       450       635       642       501       412      1118        73         0         0         0         0         0
@Sumon_Late_CS_L2C         0         2         0         0         0         1         0         0         0         0         0         0
@Sumon_Late_CPLX_L2C         0         0         0         0         0         0         0         0         0         0         0         0
DRAM PAGES: 1048576
Allocated PAGES: 4303
