
*** ChampSim Multicore Out-of-Order Simulator ***

Warmup Instructions: 10000000
Simulation Instructions: 50000000
Number of CPUs: 1
LLC sets: 2048
LLC ways: 16
Off-chip DRAM Size: 4096 MB Channels: 1 Width: 64-bit Data Rate: 1600 MT/s
CPU 0 runs traces/clientserver/client_001.champsimtrace.xz
.xz
CPU 0 Bimodal branch predictor
BTB has LRU replacement policy
ITLB has LRU replacement policy
DTLB has LRU replacement policy
STLB has LRU replacement policy
L1I has LRU replacement policy
IP Table Entries: 256
L1D has LRU replacement policy
IP_Table L2 entries: 256
L2C has LRU replacement policy
LLC has LRU replacement policy
Heartbeat CPU 0 instructions: 10000003 cycles: 2871861 heartbeat IPC: 3.48206 cumulative IPC: 3.48206 (Simulation time: 0 hr 19 min 28 sec) 

Warmup complete CPU 0 instructions: 10000003 cycles: 2871861 (Simulation time: 0 hr 19 min 28 sec) 

Heartbeat CPU 0 instructions: 20000001 cycles: 18253993 heartbeat IPC: 0.650105 cumulative IPC: 0.650105 (Simulation time: 0 hr 37 min 37 sec) 
Heartbeat CPU 0 instructions: 30000002 cycles: 33840011 heartbeat IPC: 0.641601 cumulative IPC: 0.645825 (Simulation time: 0 hr 54 min 49 sec) 
Heartbeat CPU 0 instructions: 40000002 cycles: 50429814 heartbeat IPC: 0.60278 cumulative IPC: 0.630809 (Simulation time: 1 hr 14 min 26 sec) 
Heartbeat CPU 0 instructions: 50000003 cycles: 65189359 heartbeat IPC: 0.677528 cumulative IPC: 0.641874 (Simulation time: 1 hr 31 min 17 sec) 
Heartbeat CPU 0 instructions: 60000000 cycles: 83140261 heartbeat IPC: 0.557075 cumulative IPC: 0.62291 (Simulation time: 1 hr 49 min 18 sec) 
Finished CPU 0 instructions: 50000001 cycles: 80268401 cumulative IPC: 0.62291 (Simulation time: 1 hr 49 min 18 sec) 

ChampSim completed all CPUs

Region of Interest Statistics

CPU 0 cumulative IPC: 0.62291 instructions: 50000001 cycles: 80268401
ITLB TOTAL     ACCESS:    7958156  HIT:    7904160  MISS:      53996  HIT %:    99.3215  MISS %:   0.678499   MPKI: 1.07992
ITLB LOAD TRANSLATION ACCESS:    7958156  HIT:    7904160  MISS:      53996  HIT %:    99.3215  MISS %:   0.678499   MPKI: 1.07992
ITLB PREFETCH  REQUESTED:          0  ISSUED:          0  USEFUL:          0  USELESS:          0
ITLB USEFUL LOAD PREFETCHES:          0 PREFETCH ISSUED TO LOWER LEVEL:          0  ACCURACY: -nan
ITLB TIMELY PREFETCHES:          0 LATE PREFETCHES: 0 DROPPED PREFETCHES: 0
ITLB PREFETCHES SAME FILL-ORIGIN LEVEL: 0 DIFFERENT FILL-ORIGIN LEVEL: 0
ITLB AVERAGE MISS LATENCY: 11.08 cycles
ITLB RQ	ACCESS:    9598058	FORWARD:          0	MERGED:    1629990	TO_CACHE:    7968068

DTLB TOTAL     ACCESS:   11435144  HIT:   11105473  MISS:     329671  HIT %:     97.117  MISS %:    2.88296   MPKI: 6.59342
DTLB LOAD TRANSLATION ACCESS:   11435144  HIT:   11105473  MISS:     329671  HIT %:     97.117  MISS %:    2.88296   MPKI: 6.59342
DTLB PREFETCH  REQUESTED:          0  ISSUED:          0  USEFUL:          0  USELESS:          0
DTLB USEFUL LOAD PREFETCHES:          0 PREFETCH ISSUED TO LOWER LEVEL:          0  ACCURACY: -nan
DTLB TIMELY PREFETCHES:          0 LATE PREFETCHES: 0 DROPPED PREFETCHES: 0
DTLB PREFETCHES SAME FILL-ORIGIN LEVEL: 0 DIFFERENT FILL-ORIGIN LEVEL: 0
DTLB AVERAGE MISS LATENCY: 10.3611 cycles
DTLB RQ	ACCESS:   13397113	FORWARD:          0	MERGED:    1944460	TO_CACHE:   11452653

STLB TOTAL     ACCESS:    1244235  HIT:    1240159  MISS:       4076  HIT %:    99.6724  MISS %:   0.327591   MPKI: 0.08152
STLB LOAD TRANSLATION ACCESS:     383667  HIT:     379591  MISS:       4076  HIT %:    98.9376  MISS %:    1.06238   MPKI: 0.08152
STLB TRANSLATION FROM L1D PREFETCHER ACCESS:     860568  HIT:     860568  MISS:          0  HIT %:        100  MISS %:          0   MPKI: 0
STLB PREFETCH  REQUESTED:          0  ISSUED:          0  USEFUL:          0  USELESS:          0
STLB USEFUL LOAD PREFETCHES:          0 PREFETCH ISSUED TO LOWER LEVEL:          0  ACCURACY: -nan
STLB TIMELY PREFETCHES:          0 LATE PREFETCHES: 0 DROPPED PREFETCHES: 0
STLB PREFETCHES SAME FILL-ORIGIN LEVEL: 0 DIFFERENT FILL-ORIGIN LEVEL: 0
STLB AVERAGE MISS LATENCY: 135.25 cycles
STLB RQ	ACCESS:    1550624	FORWARD:          0	MERGED:     306389	TO_CACHE:    1244235

STLB Hit, L1D data hit: 0
STLB Hit, L2C data hit: 0
STLB Hit, LLC data hit: 0
STLB Hit, LLC data miss: 0
STLB STLB hints to L2: 0
L1D TOTAL     ACCESS:   14339395  HIT:   13209354  MISS:    1130041  HIT %:    92.1193  MISS %:    7.88067   MPKI: 22.6008
L1D LOAD      ACCESS:    9312634  HIT:    8745504  MISS:     567130  HIT %:    93.9101  MISS %:     6.0899   MPKI: 11.3426
L1D RFO       ACCESS:    3887265  HIT:    3821798  MISS:      65467  HIT %:    98.3159  MISS %:    1.68414   MPKI: 1.30934
L1D PREFETCH  ACCESS:    1139496  HIT:     642052  MISS:     497444  HIT %:    56.3453  MISS %:    43.6547   MPKI: 9.94888
L1D PREFETCH  REQUESTED:    2334874  ISSUED:    2334083  USEFUL:     120282  USELESS:     377382
L1D USEFUL LOAD PREFETCHES:     120282 PREFETCH ISSUED TO LOWER LEVEL:     498645  ACCURACY: 24.1218
L1D TIMELY PREFETCHES:     120282 LATE PREFETCHES: 13631 DROPPED PREFETCHES: 0
L1D PREFETCHES SAME FILL-ORIGIN LEVEL: 498645 DIFFERENT FILL-ORIGIN LEVEL: 0
L1D AVERAGE MISS LATENCY: 54154 cycles
L1D RQ	ACCESS:   13527595	FORWARD:          0	MERGED:    4062736	TO_CACHE:    9380082
L1D WQ	ACCESS:    4089311	FORWARD:      84946	MERGED:      72280	TO_CACHE:    4017031
L1D PQ	ACCESS:    1167126	FORWARD:          0	MERGED:          0	TO_CACHE:    1166957

L1D UNIQUE REGIONS ACCESSED: 0
L1D REGIONS CONFLICTS: 0
L1D Cross Page Prefetch Requests: 0
L1D Same Page Prefetch Requests: 1334195
L1D ROI Sum of L1D PQ occupancy: 15088427
L1D PREFETCHES PUSHED FROM L2C: 0
L1I TOTAL     ACCESS:    9488067  HIT:    9205623  MISS:     282444  HIT %:    97.0232  MISS %:    2.97683   MPKI: 5.64888
L1I LOAD      ACCESS:    9488067  HIT:    9205623  MISS:     282444  HIT %:    97.0232  MISS %:    2.97683   MPKI: 5.64888
L1I PREFETCH  REQUESTED:          0  ISSUED:          0  USEFUL:          0  USELESS:          0
L1I USEFUL LOAD PREFETCHES:          0 PREFETCH ISSUED TO LOWER LEVEL:          0  ACCURACY: -nan
L1I TIMELY PREFETCHES:          0 LATE PREFETCHES: 0 DROPPED PREFETCHES: 0
L1I PREFETCHES SAME FILL-ORIGIN LEVEL: 0 DIFFERENT FILL-ORIGIN LEVEL: 0
L1I AVERAGE MISS LATENCY: 22.7575 cycles
L1I RQ	ACCESS:   13887068	FORWARD:          0	MERGED:    4289010	TO_CACHE:    9598058

BTB TOTAL     ACCESS:    6340390  HIT:    6062165  MISS:     278225  HIT %:    95.6119  MISS %:    4.38814   MPKI: 5.5645
BTB BRANCH_DIRECT_JUMP	ACCESS:     410484  HIT:     408710  MISS:       1774
BTB BRANCH_INDIRECT	ACCESS:      28973  HIT:      20601  MISS:       8372
BTB BRANCH_CONDITIONAL	ACCESS:    4498275  HIT:    4493945  MISS:       4330
BTB BRANCH_DIRECT_CALL	ACCESS:     484117  HIT:     481984  MISS:       2133
BTB BRANCH_INDIRECT_CALL	ACCESS:     217116  HIT:     157175  MISS:      59941
BTB BRANCH_RETURN	ACCESS:     701425  HIT:     499750  MISS:     201675
BTB BRANCH_OTHER ACCESS:          0  HIT:          0  MISS:          0

L2C TOTAL     ACCESS:    1705950  HIT:    1301563  MISS:     404387  HIT %:    76.2955  MISS %:    23.7045   MPKI: 8.08774
L2C LOAD      ACCESS:     849569  HIT:     659770  MISS:     189799  HIT %:    77.6594  MISS %:    22.3406   MPKI: 3.79598
L2C DATA LOAD MPKI: 3.3992
L2C INSTRUCTION LOAD MPKI: 0.39678
L2C RFO       ACCESS:      64265  HIT:      21521  MISS:      42744  HIT %:    33.4879  MISS %:    66.5121   MPKI: 0.85488
L2C PREFETCH  ACCESS:     627749  HIT:     458122  MISS:     169627  HIT %:    72.9785  MISS %:    27.0215   MPKI: 3.39254
L2C DATA PREFETCH MPKI: 3.39254
L2C INSTRUCTION PREFETCH MPKI: 0
L2C WRITEBACK ACCESS:     160101  HIT:     159721  MISS:        380  HIT %:    99.7626  MISS %:    0.23735   MPKI: 0.0076
L2C LOAD TRANSLATION ACCESS:       4266  HIT:       2429  MISS:       1837  HIT %:    56.9386  MISS %:    43.0614   MPKI: 0.03674
L2C PREFETCH  REQUESTED:     140407  ISSUED:     140407  USEFUL:      29053  USELESS:     142613
L2C USEFUL LOAD PREFETCHES:      29053 PREFETCH ISSUED TO LOWER LEVEL:     170996  ACCURACY: 16.9905
L2C TIMELY PREFETCHES:      29053 LATE PREFETCHES: 1369 DROPPED PREFETCHES: 0
L2C PREFETCHES SAME FILL-ORIGIN LEVEL: 37864 DIFFERENT FILL-ORIGIN LEVEL: 0
L2C AVERAGE MISS LATENCY: 103.144 cycles
L2C RQ	ACCESS:     918106	FORWARD:          0	MERGED:          0	TO_CACHE:     918100
L2C WQ	ACCESS:     160101	FORWARD:          8	MERGED:          0	TO_CACHE:     160101
L2C PQ	ACCESS:     639052	FORWARD:          0	MERGED:       2751	TO_CACHE:     636299

L2C Instructions Evicting Data 18159
L2C Translations Evicting Data 1699
L2C Data Evicting Data 364561
L2C Instructions Evicting Instructions 1558
L2C Translations Evicting Instructions 132
L2C Data Evicting Instructions 16221
L2C Instructions Evicting Translations 122
L2C Translations Evicting Translations 6
L2C Data Evicting Translations 1549
L2C Dense regions hint from L2: 0
PSCL5 TOTAL     ACCESS:       4076  HIT:       4076  MISS:          0  HIT %:        100  MISS %:          0   MPKI: 0
PSCL5 LOAD TRANSLATION ACCESS:       4076  HIT:       4076  MISS:          0  HIT %:        100  MISS %:          0   MPKI: 0
PSCL5 PREFETCH  REQUESTED:          0  ISSUED:          0  USEFUL:          0  USELESS:          0
PSCL5 USEFUL LOAD PREFETCHES:          0 PREFETCH ISSUED TO LOWER LEVEL:          0  ACCURACY: -nan
PSCL5 TIMELY PREFETCHES:          0 LATE PREFETCHES: 0 DROPPED PREFETCHES: 0
PSCL5 PREFETCHES SAME FILL-ORIGIN LEVEL: 0 DIFFERENT FILL-ORIGIN LEVEL: 0

PSCL4 TOTAL     ACCESS:       4076  HIT:       4076  MISS:          0  HIT %:        100  MISS %:          0   MPKI: 0
PSCL4 LOAD TRANSLATION ACCESS:       4076  HIT:       4076  MISS:          0  HIT %:        100  MISS %:          0   MPKI: 0
PSCL4 PREFETCH  REQUESTED:          0  ISSUED:          0  USEFUL:          0  USELESS:          0
PSCL4 USEFUL LOAD PREFETCHES:          0 PREFETCH ISSUED TO LOWER LEVEL:          0  ACCURACY: -nan
PSCL4 TIMELY PREFETCHES:          0 LATE PREFETCHES: 0 DROPPED PREFETCHES: 0
PSCL4 PREFETCHES SAME FILL-ORIGIN LEVEL: 0 DIFFERENT FILL-ORIGIN LEVEL: 0

PSCL3 TOTAL     ACCESS:       4063  HIT:       4056  MISS:          7  HIT %:    99.8277  MISS %:   0.172286   MPKI: 0.00014
PSCL3 LOAD TRANSLATION ACCESS:       4063  HIT:       4056  MISS:          7  HIT %:    99.8277  MISS %:   0.172286   MPKI: 0.00014
PSCL3 PREFETCH  REQUESTED:          0  ISSUED:          0  USEFUL:          0  USELESS:          0
PSCL3 USEFUL LOAD PREFETCHES:          0 PREFETCH ISSUED TO LOWER LEVEL:          0  ACCURACY: -nan
PSCL3 TIMELY PREFETCHES:          0 LATE PREFETCHES: 0 DROPPED PREFETCHES: 0
PSCL3 PREFETCHES SAME FILL-ORIGIN LEVEL: 0 DIFFERENT FILL-ORIGIN LEVEL: 0

PSCL2 TOTAL     ACCESS:       4076  HIT:       3892  MISS:        184  HIT %:    95.4858  MISS %:    4.51423   MPKI: 0.00368
PSCL2 LOAD TRANSLATION ACCESS:       4076  HIT:       3892  MISS:        184  HIT %:    95.4858  MISS %:    4.51423   MPKI: 0.00368
PSCL2 PREFETCH  REQUESTED:          0  ISSUED:          0  USEFUL:          0  USELESS:          0
PSCL2 USEFUL LOAD PREFETCHES:          0 PREFETCH ISSUED TO LOWER LEVEL:          0  ACCURACY: -nan
PSCL2 TIMELY PREFETCHES:          0 LATE PREFETCHES: 0 DROPPED PREFETCHES: 0
PSCL2 PREFETCHES SAME FILL-ORIGIN LEVEL: 0 DIFFERENT FILL-ORIGIN LEVEL: 0

LLC TOTAL     ACCESS:     508283  HIT:     352239  MISS:     156044  HIT %:    69.2998  MISS %:    30.7002   MPKI: 3.12088
LLC LOAD      ACCESS:     188438  HIT:     123918  MISS:      64520  HIT %:    65.7606  MISS %:    34.2394   MPKI: 1.2904
LLC RFO       ACCESS:      42736  HIT:       6284  MISS:      36452  HIT %:    14.7042  MISS %:    85.2958   MPKI: 0.72904
LLC PREFETCH  ACCESS:     170995  HIT:     117520  MISS:      53475  HIT %:    68.7272  MISS %:    31.2728   MPKI: 1.0695
LLC WRITEBACK ACCESS:     104277  HIT:     104066  MISS:        211  HIT %:    99.7977  MISS %:   0.202346   MPKI: 0.00422
LLC LOAD TRANSLATION ACCESS:       1837  HIT:        451  MISS:       1386  HIT %:    24.5509  MISS %:    75.4491   MPKI: 0.02772
LLC PREFETCH  REQUESTED:          0  ISSUED:          0  USEFUL:      12483  USELESS:      44010
LLC USEFUL LOAD PREFETCHES:      12483 PREFETCH ISSUED TO LOWER LEVEL:      53475  ACCURACY: 23.3436
LLC TIMELY PREFETCHES:      12483 LATE PREFETCHES: 0 DROPPED PREFETCHES: 0
LLC PREFETCHES SAME FILL-ORIGIN LEVEL: 0 DIFFERENT FILL-ORIGIN LEVEL: 0
LLC AVERAGE MISS LATENCY: 189.528 cycles
LLC RQ	ACCESS:     233011	FORWARD:          0	MERGED:          0	TO_CACHE:     233011
LLC WQ	ACCESS:     104277	FORWARD:          1	MERGED:          0	TO_CACHE:     104277
LLC PQ	ACCESS:     170996	FORWARD:          0	MERGED:          0	TO_CACHE:     170995

LLC Dense regions hint to LLC: 0

RAW hits: 716874
Loads Generated: 14244467
Loads sent to L1D: 13527595
Stores Generated: 4089305
Stores sent to L1D: 4089311
Major fault: 0 Minor fault: 2936
Allocated PAGES: 2936

stream: 
stream:times selected: 1739797
stream:pref_filled: 395384
stream:pref_useful: 76698
stream:pref_late: 8680
stream:misses: 76610
stream:misses_by_poll: 0

CS: 
CS:times selected: 127788
CS:pref_filled: 54782
CS:pref_useful: 36543
CS:pref_late: 947
CS:misses: 8987
CS:misses_by_poll: 65

CPLX: 
CPLX:times selected: 1595178
CPLX:pref_filled: 79166
CPLX:pref_useful: 19032
CPLX:pref_late: 1660
CPLX:misses: 298250
CPLX:misses_by_poll: 95

NL_L1: 
NL:times selected: 17063
NL:pref_filled: 3969
NL:pref_useful: 879
NL:pref_late: 70
NL:misses: 3412
NL:misses_by_poll: 1

total selections: 3479826
total_filled: 497444
total_useful: 120282
total_late: 11440
total_polluted: 161
total_misses_after_warmup: 634580
conflicts: 1913234
Degree Incremented Times: 36
Degree Decremented Times: 134453

L1 IP Table Write Accesses: 6875089
L1 IP Table Read Accesses: 4961855
L1 RST Write Accesses: 1458217
L1 RST Read Accesses: 2916434
L1 CSPT Write Accesses: 1458217
L1 CSPT Read Accesses: 2787323
L1 RR Filter Tag Write Accesses: 1167917
L1 RR Filter Tag Read Accesses: 56258666
L1 IP Table Tag Write Accesses: 9380084
L1 IP Table Tag Read Accesses: 9380084
L1 RST Tag Write Accesses: 0
L1 RST Tag Read Accesses: 13253167
L1 RR Filter Write Accesses: 0
L1 RR Filter Read Accesses: 1979520
test: 727755
L2 IP Table Read Accesses: 1983900
L2 IP Table Write Accesses: 1637428
L2 IP Table Tag Read Accesses: 1063001
L2 IP Table Tag Write Accesses: 1063001

DRAM Statistics
 CHANNEL 0
 RQ ROW_BUFFER_HIT:      37896  ROW_BUFFER_MISS:     117936
 DBUS_CONGESTED:      89229
 WQ ROW_BUFFER_HIT:      16483  ROW_BUFFER_MISS:      59332  FULL:          0

 AVG_CONGESTED_CYCLE: 12
 All warmup complete: 2
Channel 0 Bank busy for read cycles: 0
Channel 0 Bank busy for write cycles: 0
Channel 0
Rank 0
0banks busy for read cycles: 61987569
0banks busy for write cycles: 25034
1banks busy for read cycles: 6677956
1banks busy for write cycles: 3156594
2banks busy for read cycles: 2906972
2banks busy for write cycles: 1239056
3banks busy for read cycles: 1078189
3banks busy for write cycles: 581061
4banks busy for read cycles: 414570
4banks busy for write cycles: 321175
5banks busy for read cycles: 166117
5banks busy for write cycles: 207700
6banks busy for read cycles: 93126
6banks busy for write cycles: 173348
7banks busy for read cycles: 92270
7banks busy for write cycles: 179905
8banks busy for read cycles: 238851
8banks busy for write cycles: 728909

CPU 0 Branch Prediction Accuracy: 93.5327% MPKI: 11.3995 Average ROB Occupancy at Mispredict: 45.1135
Branch types
NOT_BRANCH: 41186521 82.373%
BRANCH_DIRECT_JUMP: 410484 0.820968%
BRANCH_INDIRECT: 28973 0.057946%
BRANCH_CONDITIONAL: 6971023 13.942%
BRANCH_DIRECT_CALL: 484117 0.968234%
BRANCH_INDIRECT_CALL: 217116 0.434232%
BRANCH_RETURN: 701425 1.40285%
BRANCH_OTHER: 0 0%

@sumon_overall_L1D    120282     13631    377382    497444   2334083   2334874
@Sumon_Early_by_class_L1D     67013     34450     17038        65
@Sumon_Late_by_class_L1D      8339       939      1647        65

@Sumon_Early_by_cycle_L1D     34932     17652     19434      7919      3445     10647      7280      6261      5413      4831      1776       692
@Sumon_Late_by_cycle_L1D      9915      1117        34         2         0         0         0         0         0         0         0         0
@Sumon_Early_stream_L1D     24611      9283      5436      3017      2041      6388      4151      4273      3373      2898      1032       510
@Sumon_Early_CS_L1D      5463      4825     12316      4190       927      2539      2004       851       700       456       137        42
@Sumon_Early_CPLX_L1D      4284      3345      1548       610       411      1555       991      1017      1234      1323       583       137
@Sumon_Late_stream_L1D      7458       850        30         1         0         0         0         0         0         0         0         0
@Sumon_Late_CS_L1D       840        98         1         0         0         0         0         0         0         0         0         0
@Sumon_Late_CPLX_L1D      1493       151         3         0         0         0         0         0         0         0         0         0
@sumon_overall_L2C     29053      1369    142613    169627    140407    140407
@Sumon_Early_by_class_L2C      8141      1138      3397         0
@Sumon_Late_by_class_L2C         0         0         0         0

@Sumon_Early_by_cycle_L2C      2590      1526      1312       850       587      1795      1424      1091      1119      1860      1761     13138
@Sumon_Late_by_cycle_L2C       811       549         8         0         1         0         0         0         0         0         0         0
@Sumon_Early_stream_L2C         0         0         0         0         0         1        19        40        78       342       725      6936
@Sumon_Early_CS_L2C         0         0         0         0         0         0         6        12        17        78        87       938
@Sumon_Early_CPLX_L2C         0         0         0         0         0         1         2         9        33       150       313      2889
@Sumon_Late_stream_L2C         0         0         0         0         0         0         0         0         0         0         0         0
@Sumon_Late_CS_L2C         0         0         0         0         0         0         0         0         0         0         0         0
@Sumon_Late_CPLX_L2C         0         0         0         0         0         0         0         0         0         0         0         0
DRAM PAGES: 1048576
Allocated PAGES: 2936
