
*** ChampSim Multicore Out-of-Order Simulator ***

Warmup Instructions: 10000000
Simulation Instructions: 50000000
Number of CPUs: 1
LLC sets: 2048
LLC ways: 16
Off-chip DRAM Size: 4096 MB Channels: 1 Width: 64-bit Data Rate: 1600 MT/s
CPU 0 runs traces/clientserver/server_010.champsimtrace.xz
.xz
CPU 0 Bimodal branch predictor
BTB has LRU replacement policy
ITLB has LRU replacement policy
DTLB has LRU replacement policy
STLB has LRU replacement policy
L1I has LRU replacement policy
IP Table Entries: 256
L1D has LRU replacement policy
IP_Table L2 entries: 256
L2C has LRU replacement policy
LLC has LRU replacement policy
Heartbeat CPU 0 instructions: 10000001 cycles: 2774136 heartbeat IPC: 3.60473 cumulative IPC: 3.60473 (Simulation time: 0 hr 17 min 37 sec) 

Warmup complete CPU 0 instructions: 10000001 cycles: 2774136 (Simulation time: 0 hr 17 min 37 sec) 

Heartbeat CPU 0 instructions: 20000002 cycles: 23917564 heartbeat IPC: 0.47296 cumulative IPC: 0.47296 (Simulation time: 0 hr 35 min 8 sec) 
Heartbeat CPU 0 instructions: 30000001 cycles: 44745232 heartbeat IPC: 0.480131 cumulative IPC: 0.476518 (Simulation time: 0 hr 52 min 49 sec) 
Heartbeat CPU 0 instructions: 40000000 cycles: 65413328 heartbeat IPC: 0.483837 cumulative IPC: 0.478933 (Simulation time: 1 hr 10 min 21 sec) 
Heartbeat CPU 0 instructions: 50000000 cycles: 86377160 heartbeat IPC: 0.477012 cumulative IPC: 0.478452 (Simulation time: 1 hr 27 min 56 sec) 
Heartbeat CPU 0 instructions: 60000001 cycles: 106851047 heartbeat IPC: 0.488427 cumulative IPC: 0.480414 (Simulation time: 1 hr 44 min 58 sec) 
Finished CPU 0 instructions: 50000000 cycles: 104076911 cumulative IPC: 0.480414 (Simulation time: 1 hr 44 min 58 sec) 

ChampSim completed all CPUs

Region of Interest Statistics

CPU 0 cumulative IPC: 0.480414 instructions: 50000000 cycles: 104076911
ITLB TOTAL     ACCESS:    7875774  HIT:    7677825  MISS:     197949  HIT %:    97.4866  MISS %:    2.51339   MPKI: 3.95898
ITLB LOAD TRANSLATION ACCESS:    7875774  HIT:    7677825  MISS:     197949  HIT %:    97.4866  MISS %:    2.51339   MPKI: 3.95898
ITLB PREFETCH  REQUESTED:          0  ISSUED:          0  USEFUL:          0  USELESS:          0
ITLB USEFUL LOAD PREFETCHES:          0 PREFETCH ISSUED TO LOWER LEVEL:          0  ACCURACY: -nan
ITLB TIMELY PREFETCHES:          0 LATE PREFETCHES: 0 DROPPED PREFETCHES: 0
ITLB PREFETCHES SAME FILL-ORIGIN LEVEL: 0 DIFFERENT FILL-ORIGIN LEVEL: 0
ITLB AVERAGE MISS LATENCY: 17.6069 cycles
ITLB RQ	ACCESS:    9689108	FORWARD:          0	MERGED:    1762079	TO_CACHE:    7927029

DTLB TOTAL     ACCESS:   10027176  HIT:    9383014  MISS:     644162  HIT %:    93.5758  MISS %:    6.42416   MPKI: 12.8832
DTLB LOAD TRANSLATION ACCESS:   10027176  HIT:    9383014  MISS:     644162  HIT %:    93.5758  MISS %:    6.42416   MPKI: 12.8832
DTLB PREFETCH  REQUESTED:          0  ISSUED:          0  USEFUL:          0  USELESS:          0
DTLB USEFUL LOAD PREFETCHES:          0 PREFETCH ISSUED TO LOWER LEVEL:          0  ACCURACY: -nan
DTLB TIMELY PREFETCHES:          0 LATE PREFETCHES: 0 DROPPED PREFETCHES: 0
DTLB PREFETCHES SAME FILL-ORIGIN LEVEL: 0 DIFFERENT FILL-ORIGIN LEVEL: 0
DTLB AVERAGE MISS LATENCY: 15.1448 cycles
DTLB RQ	ACCESS:   12384411	FORWARD:          0	MERGED:    2320369	TO_CACHE:   10064042

STLB TOTAL     ACCESS:    1030728  HIT:     910172  MISS:     120556  HIT %:    88.3038  MISS %:    11.6962   MPKI: 2.41112
STLB LOAD TRANSLATION ACCESS:     842111  HIT:     721555  MISS:     120556  HIT %:    85.6841  MISS %:    14.3159   MPKI: 2.41112
STLB TRANSLATION FROM L1D PREFETCHER ACCESS:     188617  HIT:     188617  MISS:          0  HIT %:        100  MISS %:          0   MPKI: 0
STLB PREFETCH  REQUESTED:          0  ISSUED:          0  USEFUL:          0  USELESS:          0
STLB USEFUL LOAD PREFETCHES:          0 PREFETCH ISSUED TO LOWER LEVEL:          0  ACCURACY: -nan
STLB TIMELY PREFETCHES:          0 LATE PREFETCHES: 0 DROPPED PREFETCHES: 0
STLB PREFETCHES SAME FILL-ORIGIN LEVEL: 0 DIFFERENT FILL-ORIGIN LEVEL: 0
STLB AVERAGE MISS LATENCY: 46.8488 cycles
STLB RQ	ACCESS:    1080499	FORWARD:          0	MERGED:      49771	TO_CACHE:    1030728

STLB Hit, L1D data hit: 0
STLB Hit, L2C data hit: 0
STLB Hit, LLC data hit: 0
STLB Hit, LLC data miss: 0
STLB STLB hints to L2: 0
L1D TOTAL     ACCESS:   12471115  HIT:   11739531  MISS:     731584  HIT %:    94.1338  MISS %:    5.86623   MPKI: 14.6317
L1D LOAD      ACCESS:    7228388  HIT:    6693971  MISS:     534417  HIT %:    92.6067  MISS %:    7.39331   MPKI: 10.6883
L1D RFO       ACCESS:    5013471  HIT:    4920863  MISS:      92608  HIT %:    98.1528  MISS %:    1.84718   MPKI: 1.85216
L1D PREFETCH  ACCESS:     229256  HIT:     124697  MISS:     104559  HIT %:     54.392  MISS %:     45.608   MPKI: 2.09118
L1D PREFETCH  REQUESTED:     476971  ISSUED:     476922  USEFUL:      31832  USELESS:      72687
L1D USEFUL LOAD PREFETCHES:      31832 PREFETCH ISSUED TO LOWER LEVEL:     104733  ACCURACY: 30.3935
L1D TIMELY PREFETCHES:      31832 LATE PREFETCHES: 7183 DROPPED PREFETCHES: 0
L1D PREFETCHES SAME FILL-ORIGIN LEVEL: 104733 DIFFERENT FILL-ORIGIN LEVEL: 0
L1D AVERAGE MISS LATENCY: 13018.1 cycles
L1D RQ	ACCESS:   10648989	FORWARD:          0	MERGED:    3308683	TO_CACHE:    7262125
L1D WQ	ACCESS:    5204839	FORWARD:      78327	MERGED:      82553	TO_CACHE:    5122286
L1D PQ	ACCESS:     238534	FORWARD:          0	MERGED:          0	TO_CACHE:     238388

L1D UNIQUE REGIONS ACCESSED: 0
L1D REGIONS CONFLICTS: 0
L1D Cross Page Prefetch Requests: 0
L1D Same Page Prefetch Requests: 285417
L1D ROI Sum of L1D PQ occupancy: 3095893
L1D PREFETCHES PUSHED FROM L2C: 0
L1I TOTAL     ACCESS:    9263960  HIT:    7960664  MISS:    1303296  HIT %:    85.9315  MISS %:    14.0685   MPKI: 26.0659
L1I LOAD      ACCESS:    9263960  HIT:    7960664  MISS:    1303296  HIT %:    85.9315  MISS %:    14.0685   MPKI: 26.0659
L1I PREFETCH  REQUESTED:          0  ISSUED:          0  USEFUL:          0  USELESS:          0
L1I USEFUL LOAD PREFETCHES:          0 PREFETCH ISSUED TO LOWER LEVEL:          0  ACCURACY: -nan
L1I TIMELY PREFETCHES:          0 LATE PREFETCHES: 0 DROPPED PREFETCHES: 0
L1I PREFETCHES SAME FILL-ORIGIN LEVEL: 0 DIFFERENT FILL-ORIGIN LEVEL: 0
L1I AVERAGE MISS LATENCY: 31.004 cycles
L1I RQ	ACCESS:   13842040	FORWARD:          0	MERGED:    4152932	TO_CACHE:    9689108

BTB TOTAL     ACCESS:    4464599  HIT:    3665549  MISS:     799050  HIT %:    82.1025  MISS %:    17.8975   MPKI: 15.981
BTB BRANCH_DIRECT_JUMP	ACCESS:     455305  HIT:     390833  MISS:      64472
BTB BRANCH_INDIRECT	ACCESS:     153269  HIT:     119707  MISS:      33562
BTB BRANCH_CONDITIONAL	ACCESS:    2152760  HIT:    1888424  MISS:     264336
BTB BRANCH_DIRECT_CALL	ACCESS:     666812  HIT:     545280  MISS:     121532
BTB BRANCH_INDIRECT_CALL	ACCESS:     167985  HIT:     155714  MISS:      12271
BTB BRANCH_RETURN	ACCESS:     868468  HIT:     565591  MISS:     302877
BTB BRANCH_OTHER ACCESS:          0  HIT:          0  MISS:          0

L2C TOTAL     ACCESS:    2881255  HIT:    1522618  MISS:    1358637  HIT %:    52.8457  MISS %:    47.1543   MPKI: 27.1727
L2C LOAD      ACCESS:    1837699  HIT:     901877  MISS:     935822  HIT %:    49.0764  MISS %:    50.9236   MPKI: 18.7164
L2C DATA LOAD MPKI: 5.15476
L2C INSTRUCTION LOAD MPKI: 13.5617
L2C RFO       ACCESS:      92434  HIT:      37638  MISS:      54796  HIT %:    40.7188  MISS %:    59.2812   MPKI: 1.09592
L2C PREFETCH  ACCESS:     534458  HIT:     239207  MISS:     295251  HIT %:    44.7569  MISS %:    55.2431   MPKI: 5.90502
L2C DATA PREFETCH MPKI: 5.90502
L2C INSTRUCTION PREFETCH MPKI: 0
L2C WRITEBACK ACCESS:     263816  HIT:     261035  MISS:       2781  HIT %:    98.9459  MISS %:    1.05414   MPKI: 0.05562
L2C LOAD TRANSLATION ACCESS:     152848  HIT:      82861  MISS:      69987  HIT %:    54.2114  MISS %:    45.7886   MPKI: 1.39974
L2C PREFETCH  REQUESTED:     458036  ISSUED:     458036  USEFUL:      75219  USELESS:     220140
L2C USEFUL LOAD PREFETCHES:      75219 PREFETCH ISSUED TO LOWER LEVEL:     301765  ACCURACY: 24.9263
L2C TIMELY PREFETCHES:      75219 LATE PREFETCHES: 6514 DROPPED PREFETCHES: 0
L2C PREFETCHES SAME FILL-ORIGIN LEVEL: 228813 DIFFERENT FILL-ORIGIN LEVEL: 0
L2C AVERAGE MISS LATENCY: 40.2907 cycles
L2C RQ	ACCESS:    2082996	FORWARD:          0	MERGED:          0	TO_CACHE:    2082982
L2C WQ	ACCESS:     263816	FORWARD:         16	MERGED:          0	TO_CACHE:     263816
L2C PQ	ACCESS:     562769	FORWARD:          0	MERGED:       4942	TO_CACHE:     557825

L2C Instructions Evicting Data 304989
L2C Translations Evicting Data 31413
L2C Data Evicting Data 273410
L2C Instructions Evicting Instructions 337817
L2C Translations Evicting Instructions 35181
L2C Data Evicting Instructions 303122
L2C Instructions Evicting Translations 35278
L2C Translations Evicting Translations 3393
L2C Data Evicting Translations 31253
L2C Dense regions hint from L2: 0
PSCL5 TOTAL     ACCESS:     120556  HIT:     120556  MISS:          0  HIT %:        100  MISS %:          0   MPKI: 0
PSCL5 LOAD TRANSLATION ACCESS:     120556  HIT:     120556  MISS:          0  HIT %:        100  MISS %:          0   MPKI: 0
PSCL5 PREFETCH  REQUESTED:          0  ISSUED:          0  USEFUL:          0  USELESS:          0
PSCL5 USEFUL LOAD PREFETCHES:          0 PREFETCH ISSUED TO LOWER LEVEL:          0  ACCURACY: -nan
PSCL5 TIMELY PREFETCHES:          0 LATE PREFETCHES: 0 DROPPED PREFETCHES: 0
PSCL5 PREFETCHES SAME FILL-ORIGIN LEVEL: 0 DIFFERENT FILL-ORIGIN LEVEL: 0

PSCL4 TOTAL     ACCESS:     113036  HIT:     112692  MISS:        344  HIT %:    99.6957  MISS %:   0.304328   MPKI: 0.00688
PSCL4 LOAD TRANSLATION ACCESS:     113036  HIT:     112692  MISS:        344  HIT %:    99.6957  MISS %:   0.304328   MPKI: 0.00688
PSCL4 PREFETCH  REQUESTED:          0  ISSUED:          0  USEFUL:          0  USELESS:          0
PSCL4 USEFUL LOAD PREFETCHES:          0 PREFETCH ISSUED TO LOWER LEVEL:          0  ACCURACY: -nan
PSCL4 TIMELY PREFETCHES:          0 LATE PREFETCHES: 0 DROPPED PREFETCHES: 0
PSCL4 PREFETCHES SAME FILL-ORIGIN LEVEL: 0 DIFFERENT FILL-ORIGIN LEVEL: 0

PSCL3 TOTAL     ACCESS:     119623  HIT:     118624  MISS:        999  HIT %:    99.1649  MISS %:   0.835124   MPKI: 0.01998
PSCL3 LOAD TRANSLATION ACCESS:     119623  HIT:     118624  MISS:        999  HIT %:    99.1649  MISS %:   0.835124   MPKI: 0.01998
PSCL3 PREFETCH  REQUESTED:          0  ISSUED:          0  USEFUL:          0  USELESS:          0
PSCL3 USEFUL LOAD PREFETCHES:          0 PREFETCH ISSUED TO LOWER LEVEL:          0  ACCURACY: -nan
PSCL3 TIMELY PREFETCHES:          0 LATE PREFETCHES: 0 DROPPED PREFETCHES: 0
PSCL3 PREFETCHES SAME FILL-ORIGIN LEVEL: 0 DIFFERENT FILL-ORIGIN LEVEL: 0

PSCL2 TOTAL     ACCESS:     120556  HIT:      89543  MISS:      31013  HIT %:     74.275  MISS %:     25.725   MPKI: 0.62026
PSCL2 LOAD TRANSLATION ACCESS:     120556  HIT:      89543  MISS:      31013  HIT %:     74.275  MISS %:     25.725   MPKI: 0.62026
PSCL2 PREFETCH  REQUESTED:          0  ISSUED:          0  USEFUL:          0  USELESS:          0
PSCL2 USEFUL LOAD PREFETCHES:          0 PREFETCH ISSUED TO LOWER LEVEL:          0  ACCURACY: -nan
PSCL2 TIMELY PREFETCHES:          0 LATE PREFETCHES: 0 DROPPED PREFETCHES: 0
PSCL2 PREFETCHES SAME FILL-ORIGIN LEVEL: 0 DIFFERENT FILL-ORIGIN LEVEL: 0

LLC TOTAL     ACCESS:    1528025  HIT:    1437264  MISS:      90761  HIT %:    94.0602  MISS %:    5.93976   MPKI: 1.81522
LLC LOAD      ACCESS:     929455  HIT:     900954  MISS:      28501  HIT %:    96.9336  MISS %:    3.06642   MPKI: 0.57002
LLC RFO       ACCESS:      54648  HIT:      45132  MISS:       9516  HIT %:    82.5867  MISS %:    17.4133   MPKI: 0.19032
LLC PREFETCH  ACCESS:     301765  HIT:     250794  MISS:      50971  HIT %:     83.109  MISS %:     16.891   MPKI: 1.01942
LLC WRITEBACK ACCESS:     172170  HIT:     172126  MISS:         44  HIT %:    99.9744  MISS %:  0.0255561   MPKI: 0.00088
LLC LOAD TRANSLATION ACCESS:      69987  HIT:      68258  MISS:       1729  HIT %:    97.5295  MISS %:    2.47046   MPKI: 0.03458
LLC PREFETCH  REQUESTED:          0  ISSUED:          0  USEFUL:       3622  USELESS:      46363
LLC USEFUL LOAD PREFETCHES:       3622 PREFETCH ISSUED TO LOWER LEVEL:      50971  ACCURACY: 7.106
LLC TIMELY PREFETCHES:       3622 LATE PREFETCHES: 0 DROPPED PREFETCHES: 0
LLC PREFETCHES SAME FILL-ORIGIN LEVEL: 0 DIFFERENT FILL-ORIGIN LEVEL: 0
LLC AVERAGE MISS LATENCY: 158.534 cycles
LLC RQ	ACCESS:    1054092	FORWARD:          0	MERGED:          0	TO_CACHE:    1054091
LLC WQ	ACCESS:     172170	FORWARD:          1	MERGED:          0	TO_CACHE:     172170
LLC PQ	ACCESS:     301765	FORWARD:          0	MERGED:          0	TO_CACHE:     301765

LLC Dense regions hint to LLC: 0

RAW hits: 785265
Loads Generated: 11434252
Loads sent to L1D: 10648989
Stores Generated: 5204832
Stores sent to L1D: 5204839
Major fault: 0 Minor fault: 4923
Allocated PAGES: 4923

stream: 
stream:times selected: 428149
stream:pref_filled: 73954
stream:pref_useful: 21977
stream:pref_late: 3502
stream:misses: 6021
stream:misses_by_poll: 0

CS: 
CS:times selected: 27022
CS:pref_filled: 15933
CS:pref_useful: 10194
CS:pref_late: 2646
CS:misses: 4561
CS:misses_by_poll: 0

CPLX: 
CPLX:times selected: 397817
CPLX:pref_filled: 29303
CPLX:pref_useful: 4053
CPLX:pref_late: 417
CPLX:misses: 32957
CPLX:misses_by_poll: 7

NL_L1: 
NL:times selected: 3129
NL:pref_filled: 1155
NL:pref_useful: 185
NL:pref_late: 18
NL:misses: 363
NL:misses_by_poll: 0

total selections: 856117
total_filled: 104559
total_useful: 31832
total_late: 6852
total_polluted: 7
total_misses_after_warmup: 568157
conflicts: 2441069
Degree Incremented Times: 0
Degree Decremented Times: 115613

L1 IP Table Write Accesses: 4297938
L1 IP Table Read Accesses: 1856869
L1 RST Write Accesses: 362183
L1 RST Read Accesses: 724366
L1 CSPT Write Accesses: 362183
L1 CSPT Read Accesses: 699748
L1 RR Filter Tag Write Accesses: 238583
L1 RR Filter Tag Read Accesses: 14796874
L1 IP Table Tag Write Accesses: 7262128
L1 IP Table Tag Read Accesses: 7262128
L1 RST Tag Write Accesses: 0
L1 RST Tag Read Accesses: 3575684
L1 RR Filter Write Accesses: 0
L1 RR Filter Read Accesses: 536422
test: 111828
L2 IP Table Read Accesses: 800459
L2 IP Table Write Accesses: 1126497
L2 IP Table Tag Read Accesses: 633688
L2 IP Table Tag Write Accesses: 633688

DRAM Statistics
 CHANNEL 0
 RQ ROW_BUFFER_HIT:      15944  ROW_BUFFER_MISS:      74773
 DBUS_CONGESTED:      31090
 WQ ROW_BUFFER_HIT:       7358  ROW_BUFFER_MISS:      45721  FULL:          0

 AVG_CONGESTED_CYCLE: 11
 All warmup complete: 2
Channel 0 Bank busy for read cycles: 0
Channel 0 Bank busy for write cycles: 0
Channel 0
Rank 0
0banks busy for read cycles: 89273064
0banks busy for write cycles: 28785
1banks busy for read cycles: 6850271
1banks busy for write cycles: 3783586
2banks busy for read cycles: 1666509
2banks busy for write cycles: 1005605
3banks busy for read cycles: 365670
3banks busy for write cycles: 323727
4banks busy for read cycles: 126858
4banks busy for write cycles: 165691
5banks busy for read cycles: 35889
5banks busy for write cycles: 108037
6banks busy for read cycles: 17348
6banks busy for write cycles: 87189
7banks busy for read cycles: 13999
7banks busy for write cycles: 88980
8banks busy for read cycles: 12962
8banks busy for write cycles: 122742

CPU 0 Branch Prediction Accuracy: 93.0092% MPKI: 12.962 Average ROB Occupancy at Mispredict: 21.3207
Branch types
NOT_BRANCH: 40728895 81.4578%
BRANCH_DIRECT_JUMP: 455305 0.91061%
BRANCH_INDIRECT: 153269 0.306538%
BRANCH_CONDITIONAL: 6958895 13.9178%
BRANCH_DIRECT_CALL: 666812 1.33362%
BRANCH_INDIRECT_CALL: 167985 0.33597%
BRANCH_RETURN: 868468 1.73694%
BRANCH_OTHER: 0 0%

@sumon_overall_L1D     31832      7183     72687    104559    476922    476971
@Sumon_Early_by_class_L1D     18283      7896      3394        14
@Sumon_Late_by_class_L1D      3281      2463       315        14

@Sumon_Early_by_cycle_L1D      8225      2632      5230      2129      2057      3995      1384      1513      2196      1707       644       120
@Sumon_Late_by_cycle_L1D      5861       442         1         0         0         0         0         0         0         0         0         0
@Sumon_Early_stream_L1D      3868      1814      1781      1551      1415      2494       988      1174      1511      1211       391        85
@Sumon_Early_CS_L1D      3439       168      2710       109       250       790       141       108        70        25        82         4
@Sumon_Early_CPLX_L1D       419       305       460       192       152       484       216       214       449       372       110        21
@Sumon_Late_stream_L1D      3043       238         0         0         0         0         0         0         0         0         0         0
@Sumon_Late_CS_L1D      2330       133         0         0         0         0         0         0         0         0         0         0
@Sumon_Late_CPLX_L1D       291        23         1         0         0         0         0         0         0         0         0         0
@sumon_overall_L2C     75219      6514    220140    295251    458036    458036
@Sumon_Early_by_class_L2C      1290       568       540         0
@Sumon_Late_by_class_L2C         0         0         0         0

@Sumon_Early_by_cycle_L2C     13051      8471      8887      5852      4458     10429      5276      3599      2659      2674      1909      7954
@Sumon_Late_by_cycle_L2C      4831      1681         2         0         0         0         0         0         0         0         0         0
@Sumon_Early_stream_L2C         0         0         0         0         0         0         0         0         1        10        84      1195
@Sumon_Early_CS_L2C         0         0         0         0         0         0         0         0         0         3        36       529
@Sumon_Early_CPLX_L2C         0         0         0         0         0         0         0         0         0         9        59       472
@Sumon_Late_stream_L2C         0         0         0         0         0         0         0         0         0         0         0         0
@Sumon_Late_CS_L2C         0         0         0         0         0         0         0         0         0         0         0         0
@Sumon_Late_CPLX_L2C         0         0         0         0         0         0         0         0         0         0         0         0
DRAM PAGES: 1048576
Allocated PAGES: 4923
