
*** ChampSim Multicore Out-of-Order Simulator ***

Warmup Instructions: 10000000
Simulation Instructions: 50000000
Number of CPUs: 1
LLC sets: 2048
LLC ways: 16
Off-chip DRAM Size: 4096 MB Channels: 1 Width: 64-bit Data Rate: 1600 MT/s
CPU 0 runs traces/clientserver/server_031.champsimtrace.xz
.xz
CPU 0 Bimodal branch predictor
BTB has LRU replacement policy
ITLB has LRU replacement policy
DTLB has LRU replacement policy
STLB has LRU replacement policy
L1I has LRU replacement policy
IP Table Entries: 256
L1D has LRU replacement policy
IP_Table L2 entries: 256
L2C has LRU replacement policy
LLC has LRU replacement policy
Heartbeat CPU 0 instructions: 10000000 cycles: 2887988 heartbeat IPC: 3.46262 cumulative IPC: 3.46262 (Simulation time: 0 hr 19 min 39 sec) 

Warmup complete CPU 0 instructions: 10000004 cycles: 2887989 (Simulation time: 0 hr 19 min 39 sec) 

Heartbeat CPU 0 instructions: 20000003 cycles: 28342181 heartbeat IPC: 0.392863 cumulative IPC: 0.392863 (Simulation time: 0 hr 38 min 17 sec) 
Heartbeat CPU 0 instructions: 30000003 cycles: 53725823 heartbeat IPC: 0.393954 cumulative IPC: 0.393408 (Simulation time: 0 hr 57 min 9 sec) 
Heartbeat CPU 0 instructions: 40000002 cycles: 79050821 heartbeat IPC: 0.394867 cumulative IPC: 0.393893 (Simulation time: 1 hr 15 min 27 sec) 
Heartbeat CPU 0 instructions: 50000001 cycles: 104341839 heartbeat IPC: 0.395397 cumulative IPC: 0.394268 (Simulation time: 1 hr 34 min 2 sec) 
Heartbeat CPU 0 instructions: 60000002 cycles: 129752884 heartbeat IPC: 0.39353 cumulative IPC: 0.39412 (Simulation time: 1 hr 50 min 28 sec) 
Finished CPU 0 instructions: 50000002 cycles: 126864896 cumulative IPC: 0.39412 (Simulation time: 1 hr 50 min 28 sec) 

ChampSim completed all CPUs

Region of Interest Statistics

CPU 0 cumulative IPC: 0.39412 instructions: 50000002 cycles: 126864896
ITLB TOTAL     ACCESS:    8597793  HIT:    8045753  MISS:     552040  HIT %:    93.5793  MISS %:    6.42072   MPKI: 11.0408
ITLB LOAD TRANSLATION ACCESS:    8597793  HIT:    8045753  MISS:     552040  HIT %:    93.5793  MISS %:    6.42072   MPKI: 11.0408
ITLB PREFETCH  REQUESTED:          0  ISSUED:          0  USEFUL:          0  USELESS:          0
ITLB USEFUL LOAD PREFETCHES:          0 PREFETCH ISSUED TO LOWER LEVEL:          0  ACCURACY: -nan
ITLB TIMELY PREFETCHES:          0 LATE PREFETCHES: 0 DROPPED PREFETCHES: 0
ITLB PREFETCHES SAME FILL-ORIGIN LEVEL: 0 DIFFERENT FILL-ORIGIN LEVEL: 0
ITLB AVERAGE MISS LATENCY: 9.16445 cycles
ITLB RQ	ACCESS:   10317916	FORWARD:          0	MERGED:    1581032	TO_CACHE:    8736884

DTLB TOTAL     ACCESS:   12569122  HIT:   12008597  MISS:     560525  HIT %:    95.5405  MISS %:    4.45954   MPKI: 11.2105
DTLB LOAD TRANSLATION ACCESS:   12569122  HIT:   12008597  MISS:     560525  HIT %:    95.5405  MISS %:    4.45954   MPKI: 11.2105
DTLB PREFETCH  REQUESTED:          0  ISSUED:          0  USEFUL:          0  USELESS:          0
DTLB USEFUL LOAD PREFETCHES:          0 PREFETCH ISSUED TO LOWER LEVEL:          0  ACCURACY: -nan
DTLB TIMELY PREFETCHES:          0 LATE PREFETCHES: 0 DROPPED PREFETCHES: 0
DTLB PREFETCHES SAME FILL-ORIGIN LEVEL: 0 DIFFERENT FILL-ORIGIN LEVEL: 0
DTLB AVERAGE MISS LATENCY: 11.5177 cycles
DTLB RQ	ACCESS:   15699308	FORWARD:          0	MERGED:    3111659	TO_CACHE:   12587649

STLB TOTAL     ACCESS:    1493263  HIT:    1479292  MISS:      13971  HIT %:    99.0644  MISS %:   0.935602   MPKI: 0.27942
STLB LOAD TRANSLATION ACCESS:    1112565  HIT:    1098594  MISS:      13971  HIT %:    98.7443  MISS %:    1.25575   MPKI: 0.27942
STLB TRANSLATION FROM L1D PREFETCHER ACCESS:     380698  HIT:     380698  MISS:          0  HIT %:        100  MISS %:          0   MPKI: 0
STLB PREFETCH  REQUESTED:          0  ISSUED:          0  USEFUL:          0  USELESS:          0
STLB USEFUL LOAD PREFETCHES:          0 PREFETCH ISSUED TO LOWER LEVEL:          0  ACCURACY: -nan
STLB TIMELY PREFETCHES:          0 LATE PREFETCHES: 0 DROPPED PREFETCHES: 0
STLB PREFETCHES SAME FILL-ORIGIN LEVEL: 0 DIFFERENT FILL-ORIGIN LEVEL: 0
STLB AVERAGE MISS LATENCY: 106.489 cycles
STLB RQ	ACCESS:    1596519	FORWARD:          0	MERGED:     103256	TO_CACHE:    1493263

STLB Hit, L1D data hit: 0
STLB Hit, L2C data hit: 0
STLB Hit, LLC data hit: 0
STLB Hit, LLC data miss: 0
STLB STLB hints to L2: 0
L1D TOTAL     ACCESS:   15594851  HIT:   14178024  MISS:    1416827  HIT %:    90.9148  MISS %:    9.08522   MPKI: 28.3365
L1D LOAD      ACCESS:    8648930  HIT:    7786539  MISS:     862391  HIT %:    90.0289  MISS %:    9.97107   MPKI: 17.2478
L1D RFO       ACCESS:    6482306  HIT:    6172582  MISS:     309724  HIT %:     95.222  MISS %:    4.77799   MPKI: 6.19448
L1D PREFETCH  ACCESS:     463615  HIT:     218903  MISS:     244712  HIT %:    47.2165  MISS %:    52.7835   MPKI: 4.89424
L1D PREFETCH  REQUESTED:     968189  ISSUED:     968189  USEFUL:      62159  USELESS:     182509
L1D USEFUL LOAD PREFETCHES:      62159 PREFETCH ISSUED TO LOWER LEVEL:     245208  ACCURACY: 25.3495
L1D TIMELY PREFETCHES:      62159 LATE PREFETCHES: 63974 DROPPED PREFETCHES: 0
L1D PREFETCHES SAME FILL-ORIGIN LEVEL: 245208 DIFFERENT FILL-ORIGIN LEVEL: 0
L1D AVERAGE MISS LATENCY: 22992.9 cycles
L1D RQ	ACCESS:   11885627	FORWARD:          0	MERGED:    3009570	TO_CACHE:    8754948
L1D WQ	ACCESS:    6988846	FORWARD:     121390	MERGED:      44486	TO_CACHE:    6944360
L1D PQ	ACCESS:     484235	FORWARD:          0	MERGED:          0	TO_CACHE:     483954

L1D UNIQUE REGIONS ACCESSED: 0
L1D REGIONS CONFLICTS: 0
L1D Cross Page Prefetch Requests: 0
L1D Same Page Prefetch Requests: 575532
L1D ROI Sum of L1D PQ occupancy: 6254010
L1D PREFETCHES PUSHED FROM L2C: 0
L1I TOTAL     ACCESS:    9782893  HIT:    6775617  MISS:    3007276  HIT %:    69.2598  MISS %:    30.7402   MPKI: 60.1455
L1I LOAD      ACCESS:    9782893  HIT:    6775617  MISS:    3007276  HIT %:    69.2598  MISS %:    30.7402   MPKI: 60.1455
L1I PREFETCH  REQUESTED:          0  ISSUED:          0  USEFUL:          0  USELESS:          0
L1I USEFUL LOAD PREFETCHES:          0 PREFETCH ISSUED TO LOWER LEVEL:          0  ACCURACY: -nan
L1I TIMELY PREFETCHES:          0 LATE PREFETCHES: 0 DROPPED PREFETCHES: 0
L1I PREFETCHES SAME FILL-ORIGIN LEVEL: 0 DIFFERENT FILL-ORIGIN LEVEL: 0
L1I AVERAGE MISS LATENCY: 17.7445 cycles
L1I RQ	ACCESS:   14056049	FORWARD:          0	MERGED:    3738133	TO_CACHE:   10317916

BTB TOTAL     ACCESS:    6102276  HIT:    4206282  MISS:    1895994  HIT %:    68.9297  MISS %:    31.0703   MPKI: 37.9199
BTB BRANCH_DIRECT_JUMP	ACCESS:     546758  HIT:     394739  MISS:     152019
BTB BRANCH_INDIRECT	ACCESS:     172660  HIT:     135870  MISS:      36790
BTB BRANCH_CONDITIONAL	ACCESS:    2968197  HIT:    2446713  MISS:     521484
BTB BRANCH_DIRECT_CALL	ACCESS:    1018538  HIT:     647411  MISS:     371127
BTB BRANCH_INDIRECT_CALL	ACCESS:     188789  HIT:     117745  MISS:      71044
BTB BRANCH_RETURN	ACCESS:    1207334  HIT:     463804  MISS:     743530
BTB BRANCH_OTHER ACCESS:          0  HIT:          0  MISS:          0

L2C TOTAL     ACCESS:    5746914  HIT:    5043308  MISS:     703606  HIT %:    87.7568  MISS %:    12.2432   MPKI: 14.0721
L2C LOAD      ACCESS:    3869661  HIT:    3380012  MISS:     489649  HIT %:    87.3465  MISS %:    12.6535   MPKI: 9.79298
L2C DATA LOAD MPKI: 2.57596
L2C INSTRUCTION LOAD MPKI: 7.21702
L2C RFO       ACCESS:     309228  HIT:     256203  MISS:      53025  HIT %:    82.8525  MISS %:    17.1475   MPKI: 1.0605
L2C PREFETCH  ACCESS:     952231  HIT:     809413  MISS:     142818  HIT %:    85.0017  MISS %:    14.9983   MPKI: 2.85636
L2C DATA PREFETCH MPKI: 2.85636
L2C INSTRUCTION PREFETCH MPKI: 0
L2C WRITEBACK ACCESS:     594617  HIT:     588831  MISS:       5786  HIT %:    99.0269  MISS %:   0.973063   MPKI: 0.11572
L2C LOAD TRANSLATION ACCESS:      21177  HIT:       8849  MISS:      12328  HIT %:    41.7859  MISS %:    58.2141   MPKI: 0.24656
L2C PREFETCH  REQUESTED:     724741  ISSUED:     724741  USEFUL:      19358  USELESS:     123793
L2C USEFUL LOAD PREFETCHES:      19358 PREFETCH ISSUED TO LOWER LEVEL:     146851  ACCURACY: 13.1821
L2C TIMELY PREFETCHES:      19358 LATE PREFETCHES: 4033 DROPPED PREFETCHES: 0
L2C PREFETCHES SAME FILL-ORIGIN LEVEL: 80732 DIFFERENT FILL-ORIGIN LEVEL: 0
L2C AVERAGE MISS LATENCY: 42.2463 cycles
L2C RQ	ACCESS:    4200071	FORWARD:          0	MERGED:          0	TO_CACHE:    4200066
L2C WQ	ACCESS:     594617	FORWARD:          5	MERGED:          0	TO_CACHE:     594617
L2C PQ	ACCESS:     969949	FORWARD:          0	MERGED:       6558	TO_CACHE:     963391

L2C Instructions Evicting Data 138442
L2C Translations Evicting Data 8329
L2C Data Evicting Data 181551
L2C Instructions Evicting Instructions 219019
L2C Translations Evicting Instructions 3207
L2C Data Evicting Instructions 134932
L2C Instructions Evicting Translations 3390
L2C Translations Evicting Translations 792
L2C Data Evicting Translations 8158
L2C Dense regions hint from L2: 0
PSCL5 TOTAL     ACCESS:      13971  HIT:      13971  MISS:          0  HIT %:        100  MISS %:          0   MPKI: 0
PSCL5 LOAD TRANSLATION ACCESS:      13971  HIT:      13971  MISS:          0  HIT %:        100  MISS %:          0   MPKI: 0
PSCL5 PREFETCH  REQUESTED:          0  ISSUED:          0  USEFUL:          0  USELESS:          0
PSCL5 USEFUL LOAD PREFETCHES:          0 PREFETCH ISSUED TO LOWER LEVEL:          0  ACCURACY: -nan
PSCL5 TIMELY PREFETCHES:          0 LATE PREFETCHES: 0 DROPPED PREFETCHES: 0
PSCL5 PREFETCHES SAME FILL-ORIGIN LEVEL: 0 DIFFERENT FILL-ORIGIN LEVEL: 0

PSCL4 TOTAL     ACCESS:      13315  HIT:      13146  MISS:        169  HIT %:    98.7308  MISS %:    1.26925   MPKI: 0.00338
PSCL4 LOAD TRANSLATION ACCESS:      13315  HIT:      13146  MISS:        169  HIT %:    98.7308  MISS %:    1.26925   MPKI: 0.00338
PSCL4 PREFETCH  REQUESTED:          0  ISSUED:          0  USEFUL:          0  USELESS:          0
PSCL4 USEFUL LOAD PREFETCHES:          0 PREFETCH ISSUED TO LOWER LEVEL:          0  ACCURACY: -nan
PSCL4 TIMELY PREFETCHES:          0 LATE PREFETCHES: 0 DROPPED PREFETCHES: 0
PSCL4 PREFETCHES SAME FILL-ORIGIN LEVEL: 0 DIFFERENT FILL-ORIGIN LEVEL: 0

PSCL3 TOTAL     ACCESS:      13938  HIT:      13769  MISS:        169  HIT %:    98.7875  MISS %:    1.21251   MPKI: 0.00338
PSCL3 LOAD TRANSLATION ACCESS:      13938  HIT:      13769  MISS:        169  HIT %:    98.7875  MISS %:    1.21251   MPKI: 0.00338
PSCL3 PREFETCH  REQUESTED:          0  ISSUED:          0  USEFUL:          0  USELESS:          0
PSCL3 USEFUL LOAD PREFETCHES:          0 PREFETCH ISSUED TO LOWER LEVEL:          0  ACCURACY: -nan
PSCL3 TIMELY PREFETCHES:          0 LATE PREFETCHES: 0 DROPPED PREFETCHES: 0
PSCL3 PREFETCHES SAME FILL-ORIGIN LEVEL: 0 DIFFERENT FILL-ORIGIN LEVEL: 0

PSCL2 TOTAL     ACCESS:      13971  HIT:       7097  MISS:       6874  HIT %:    50.7981  MISS %:    49.2019   MPKI: 0.13748
PSCL2 LOAD TRANSLATION ACCESS:      13971  HIT:       7097  MISS:       6874  HIT %:    50.7981  MISS %:    49.2019   MPKI: 0.13748
PSCL2 PREFETCH  REQUESTED:          0  ISSUED:          0  USEFUL:          0  USELESS:          0
PSCL2 USEFUL LOAD PREFETCHES:          0 PREFETCH ISSUED TO LOWER LEVEL:          0  ACCURACY: -nan
PSCL2 TIMELY PREFETCHES:          0 LATE PREFETCHES: 0 DROPPED PREFETCHES: 0
PSCL2 PREFETCHES SAME FILL-ORIGIN LEVEL: 0 DIFFERENT FILL-ORIGIN LEVEL: 0

LLC TOTAL     ACCESS:     788260  HIT:     732117  MISS:      56143  HIT %:    92.8776  MISS %:     7.1224   MPKI: 1.12286
LLC LOAD      ACCESS:     485694  HIT:     467020  MISS:      18674  HIT %:    96.1552  MISS %:    3.84481   MPKI: 0.37348
LLC RFO       ACCESS:      52947  HIT:      50277  MISS:       2670  HIT %:    94.9572  MISS %:    5.04278   MPKI: 0.0534
LLC PREFETCH  ACCESS:     146851  HIT:     114526  MISS:      32325  HIT %:    77.9879  MISS %:    22.0121   MPKI: 0.6465
LLC WRITEBACK ACCESS:      90440  HIT:      90201  MISS:        239  HIT %:    99.7357  MISS %:   0.264264   MPKI: 0.00478
LLC LOAD TRANSLATION ACCESS:      12328  HIT:      10093  MISS:       2235  HIT %:    81.8705  MISS %:    18.1295   MPKI: 0.0447
LLC PREFETCH  REQUESTED:          0  ISSUED:          0  USEFUL:       1505  USELESS:      26696
LLC USEFUL LOAD PREFETCHES:       1505 PREFETCH ISSUED TO LOWER LEVEL:      32325  ACCURACY: 4.65584
LLC TIMELY PREFETCHES:       1505 LATE PREFETCHES: 0 DROPPED PREFETCHES: 0
LLC PREFETCHES SAME FILL-ORIGIN LEVEL: 0 DIFFERENT FILL-ORIGIN LEVEL: 0
LLC AVERAGE MISS LATENCY: 156.237 cycles
LLC RQ	ACCESS:     550969	FORWARD:          0	MERGED:          0	TO_CACHE:     550969
LLC WQ	ACCESS:      90440	FORWARD:          0	MERGED:          0	TO_CACHE:      90440
LLC PQ	ACCESS:     146851	FORWARD:          0	MERGED:          0	TO_CACHE:     146851

LLC Dense regions hint to LLC: 0

RAW hits: 571357
Loads Generated: 12456984
Loads sent to L1D: 11885627
Stores Generated: 6988845
Stores sent to L1D: 6988846
Major fault: 0 Minor fault: 5588
Allocated PAGES: 5588

stream: 
stream:times selected: 848138
stream:pref_filled: 178594
stream:pref_useful: 30428
stream:pref_late: 47081
stream:misses: 11428
stream:misses_by_poll: 0

CS: 
CS:times selected: 102455
CS:pref_filled: 65403
CS:pref_useful: 39837
CS:pref_late: 7889
CS:misses: 16519
CS:misses_by_poll: 1

CPLX: 
CPLX:times selected: 743036
CPLX:pref_filled: 39464
CPLX:pref_useful: 6210
CPLX:pref_late: 3192
CPLX:misses: 137752
CPLX:misses_by_poll: 16

NL_L1: 
NL:times selected: 2585
NL:pref_filled: 864
NL:pref_useful: 90
NL:pref_late: 57
NL:misses: 255
NL:misses_by_poll: 0

total selections: 1696214
total_filled: 244712
total_useful: 62159
total_late: 58568
total_polluted: 17
total_misses_after_warmup: 968408
conflicts: 3384384
Degree Incremented Times: 0
Degree Decremented Times: 153082

L1 IP Table Write Accesses: 5090372
L1 IP Table Read Accesses: 1705988
L1 RST Write Accesses: 716125
L1 RST Read Accesses: 1432250
L1 CSPT Write Accesses: 716125
L1 CSPT Read Accesses: 1342175
L1 RR Filter Tag Write Accesses: 484235
L1 RR Filter Tag Read Accesses: 34537574
L1 IP Table Tag Write Accesses: 8754947
L1 IP Table Tag Read Accesses: 8754947
L1 RST Tag Write Accesses: 0
L1 RST Tag Read Accesses: 7004384
L1 RR Filter Write Accesses: 0
L1 RR Filter Read Accesses: 1237568
test: 175380
L2 IP Table Read Accesses: 1470110
L2 IP Table Write Accesses: 1977198
L2 IP Table Tag Read Accesses: 1101856
L2 IP Table Tag Write Accesses: 1101856

DRAM Statistics
 CHANNEL 0
 RQ ROW_BUFFER_HIT:      16736  ROW_BUFFER_MISS:      39168
 DBUS_CONGESTED:      25519
 WQ ROW_BUFFER_HIT:        380  ROW_BUFFER_MISS:       1236  FULL:          0

 AVG_CONGESTED_CYCLE: 9
 All warmup complete: 2
Channel 0 Bank busy for read cycles: 0
Channel 0 Bank busy for write cycles: 0
Channel 0
Rank 0
0banks busy for read cycles: 123071301
0banks busy for write cycles: 1117
1banks busy for read cycles: 1491251
1banks busy for write cycles: 198180
2banks busy for read cycles: 1177539
2banks busy for write cycles: 44308
3banks busy for read cycles: 468113
3banks busy for write cycles: 13331
4banks busy for read cycles: 217593
4banks busy for write cycles: 3312
5banks busy for read cycles: 94160
5banks busy for write cycles: 970
6banks busy for read cycles: 31965
6banks busy for write cycles: 356
7banks busy for read cycles: 17216
7banks busy for write cycles: 617
8banks busy for read cycles: 32222
8banks busy for write cycles: 1346

CPU 0 Branch Prediction Accuracy: 91.8928% MPKI: 15.1591 Average ROB Occupancy at Mispredict: 19.1253
Branch types
NOT_BRANCH: 40650646 81.3013%
BRANCH_DIRECT_JUMP: 546758 1.09352%
BRANCH_INDIRECT: 172660 0.34532%
BRANCH_CONDITIONAL: 6215044 12.4301%
BRANCH_DIRECT_CALL: 1018538 2.03708%
BRANCH_INDIRECT_CALL: 188789 0.377578%
BRANCH_RETURN: 1207334 2.41467%
BRANCH_OTHER: 0 0%

@sumon_overall_L1D     62159     63974    182509    244712    968189    968189
@Sumon_Early_by_class_L1D     23566     33083      4104        51
@Sumon_Late_by_class_L1D     45787      7468      2635        51

@Sumon_Early_by_cycle_L1D     41213      5267      2743      4978       232      1431       827       685      1938      2126       714         5
@Sumon_Late_by_cycle_L1D     54206      2036        21         0         0         0         0         0         0         0         0         0
@Sumon_Early_stream_L1D      8264      3340      1897      3837       209      1309       671       639      1265      1676       454         5
@Sumon_Early_CS_L1D     31022      1257       370       370         1         0         0         0         7        56         0         0
@Sumon_Early_CPLX_L1D      1536       354       458       718        20       120       153        42       162       281       260         0
@Sumon_Late_stream_L1D     45118       657        12         0         0         0         0         0         0         0         0         0
@Sumon_Late_CS_L1D      6159      1300         9         0         0         0         0         0         0         0         0         0
@Sumon_Late_CPLX_L1D      2566        69         0         0         0         0         0         0         0         0         0         0
@sumon_overall_L2C     19358      4033    123793    142818    724741    724741
@Sumon_Early_by_class_L2C       977        55       201         0
@Sumon_Late_by_class_L2C         0         0         0         0

@Sumon_Early_by_cycle_L2C      5418      2907       843       251      1334      2686       853      1099      1033       595       445      1894
@Sumon_Late_by_cycle_L2C      3309       720         4         0         0         0         0         0         0         0         0         0
@Sumon_Early_stream_L2C         0         0         0         0         0         0         0         0         0        16        56       905
@Sumon_Early_CS_L2C         0         0         0         0         0         0         0         0         0         0         0        55
@Sumon_Early_CPLX_L2C         0         0         0         0         0         0         0         0         0         1        19       181
@Sumon_Late_stream_L2C         0         0         0         0         0         0         0         0         0         0         0         0
@Sumon_Late_CS_L2C         0         0         0         0         0         0         0         0         0         0         0         0
@Sumon_Late_CPLX_L2C         0         0         0         0         0         0         0         0         0         0         0         0
DRAM PAGES: 1048576
Allocated PAGES: 5588
