
*** ChampSim Multicore Out-of-Order Simulator ***

Warmup Instructions: 10000000
Simulation Instructions: 50000000
Number of CPUs: 1
LLC sets: 2048
LLC ways: 16
Off-chip DRAM Size: 4096 MB Channels: 1 Width: 64-bit Data Rate: 1600 MT/s
CPU 0 runs traces/clientserver/server_037.champsimtrace.xz
.xz
CPU 0 Bimodal branch predictor
BTB has LRU replacement policy
ITLB has LRU replacement policy
DTLB has LRU replacement policy
STLB has LRU replacement policy
L1I has LRU replacement policy
IP Table Entries: 256
L1D has LRU replacement policy
IP_Table L2 entries: 256
L2C has LRU replacement policy
LLC has LRU replacement policy
Heartbeat CPU 0 instructions: 10000000 cycles: 2752082 heartbeat IPC: 3.63361 cumulative IPC: 3.63361 (Simulation time: 0 hr 18 min 59 sec) 

Warmup complete CPU 0 instructions: 10000004 cycles: 2752083 (Simulation time: 0 hr 18 min 59 sec) 

Heartbeat CPU 0 instructions: 20000001 cycles: 20744641 heartbeat IPC: 0.555785 cumulative IPC: 0.555785 (Simulation time: 0 hr 36 min 11 sec) 
Heartbeat CPU 0 instructions: 30000000 cycles: 38428857 heartbeat IPC: 0.565476 cumulative IPC: 0.560589 (Simulation time: 0 hr 53 min 10 sec) 
Heartbeat CPU 0 instructions: 40000000 cycles: 56374249 heartbeat IPC: 0.557246 cumulative IPC: 0.55947 (Simulation time: 1 hr 10 min 13 sec) 
Heartbeat CPU 0 instructions: 50000000 cycles: 74235565 heartbeat IPC: 0.559869 cumulative IPC: 0.55957 (Simulation time: 1 hr 27 min 17 sec) 
Heartbeat CPU 0 instructions: 60000001 cycles: 92116572 heartbeat IPC: 0.559253 cumulative IPC: 0.559506 (Simulation time: 1 hr 43 min 57 sec) 
Finished CPU 0 instructions: 50000001 cycles: 89364496 cumulative IPC: 0.559506 (Simulation time: 1 hr 43 min 57 sec) 

ChampSim completed all CPUs

Region of Interest Statistics

CPU 0 cumulative IPC: 0.559506 instructions: 50000001 cycles: 89364496
ITLB TOTAL     ACCESS:    8848254  HIT:    8221287  MISS:     626967  HIT %:    92.9142  MISS %:    7.08577   MPKI: 12.5393
ITLB LOAD TRANSLATION ACCESS:    8848254  HIT:    8221287  MISS:     626967  HIT %:    92.9142  MISS %:    7.08577   MPKI: 12.5393
ITLB PREFETCH  REQUESTED:          0  ISSUED:          0  USEFUL:          0  USELESS:          0
ITLB USEFUL LOAD PREFETCHES:          0 PREFETCH ISSUED TO LOWER LEVEL:          0  ACCURACY: -nan
ITLB TIMELY PREFETCHES:          0 LATE PREFETCHES: 0 DROPPED PREFETCHES: 0
ITLB PREFETCHES SAME FILL-ORIGIN LEVEL: 0 DIFFERENT FILL-ORIGIN LEVEL: 0
ITLB AVERAGE MISS LATENCY: 9.05098 cycles
ITLB RQ	ACCESS:   10657616	FORWARD:          0	MERGED:    1614993	TO_CACHE:    9042623

DTLB TOTAL     ACCESS:   10842526  HIT:   10320497  MISS:     522029  HIT %:    95.1854  MISS %:    4.81464   MPKI: 10.4406
DTLB LOAD TRANSLATION ACCESS:   10842526  HIT:   10320497  MISS:     522029  HIT %:    95.1854  MISS %:    4.81464   MPKI: 10.4406
DTLB PREFETCH  REQUESTED:          0  ISSUED:          0  USEFUL:          0  USELESS:          0
DTLB USEFUL LOAD PREFETCHES:          0 PREFETCH ISSUED TO LOWER LEVEL:          0  ACCURACY: -nan
DTLB TIMELY PREFETCHES:          0 LATE PREFETCHES: 0 DROPPED PREFETCHES: 0
DTLB PREFETCHES SAME FILL-ORIGIN LEVEL: 0 DIFFERENT FILL-ORIGIN LEVEL: 0
DTLB AVERAGE MISS LATENCY: 10.2261 cycles
DTLB RQ	ACCESS:   14425268	FORWARD:          0	MERGED:    3544568	TO_CACHE:   10880700

STLB TOTAL     ACCESS:    1268907  HIT:    1263074  MISS:       5833  HIT %:    99.5403  MISS %:   0.459687   MPKI: 0.11666
STLB LOAD TRANSLATION ACCESS:    1148996  HIT:    1143163  MISS:       5833  HIT %:    99.4923  MISS %:   0.507661   MPKI: 0.11666
STLB TRANSLATION FROM L1D PREFETCHER ACCESS:     119911  HIT:     119911  MISS:          0  HIT %:        100  MISS %:          0   MPKI: 0
STLB PREFETCH  REQUESTED:          0  ISSUED:          0  USEFUL:          0  USELESS:          0
STLB USEFUL LOAD PREFETCHES:          0 PREFETCH ISSUED TO LOWER LEVEL:          0  ACCURACY: -nan
STLB TIMELY PREFETCHES:          0 LATE PREFETCHES: 0 DROPPED PREFETCHES: 0
STLB PREFETCHES SAME FILL-ORIGIN LEVEL: 0 DIFFERENT FILL-ORIGIN LEVEL: 0
STLB AVERAGE MISS LATENCY: 112.133 cycles
STLB RQ	ACCESS:    1357160	FORWARD:          0	MERGED:      88253	TO_CACHE:    1268907

STLB Hit, L1D data hit: 0
STLB Hit, L2C data hit: 0
STLB Hit, LLC data hit: 0
STLB Hit, LLC data miss: 0
STLB STLB hints to L2: 0
L1D TOTAL     ACCESS:   14529560  HIT:   14029160  MISS:     500400  HIT %:     96.556  MISS %:    3.44401   MPKI: 10.008
L1D LOAD      ACCESS:    8058301  HIT:    7677427  MISS:     380874  HIT %:    95.2735  MISS %:    4.72648   MPKI: 7.61748
L1D RFO       ACCESS:    6270041  HIT:    6206030  MISS:      64011  HIT %:    98.9791  MISS %:     1.0209   MPKI: 1.28022
L1D PREFETCH  ACCESS:     201218  HIT:     145703  MISS:      55515  HIT %:    72.4105  MISS %:    27.5895   MPKI: 1.1103
L1D PREFETCH  REQUESTED:     416483  ISSUED:     416386  USEFUL:      16598  USELESS:      38923
L1D USEFUL LOAD PREFETCHES:      16598 PREFETCH ISSUED TO LOWER LEVEL:      55515  ACCURACY: 29.8982
L1D TIMELY PREFETCHES:      16598 LATE PREFETCHES: 1439 DROPPED PREFETCHES: 0
L1D PREFETCHES SAME FILL-ORIGIN LEVEL: 55515 DIFFERENT FILL-ORIGIN LEVEL: 0
L1D AVERAGE MISS LATENCY: 34.0753 cycles
L1D RQ	ACCESS:   11757644	FORWARD:          0	MERGED:    3506134	TO_CACHE:    8082719
L1D WQ	ACCESS:    6389167	FORWARD:     168849	MERGED:      46618	TO_CACHE:    6342549
L1D PQ	ACCESS:     208222	FORWARD:          0	MERGED:          0	TO_CACHE:     208164

L1D UNIQUE REGIONS ACCESSED: 0
L1D REGIONS CONFLICTS: 0
L1D Cross Page Prefetch Requests: 0
L1D Same Page Prefetch Requests: 245796
L1D ROI Sum of L1D PQ occupancy: 2731832
L1D PREFETCHES PUSHED FROM L2C: 0
L1I TOTAL     ACCESS:    9639751  HIT:    5643243  MISS:    3996508  HIT %:    58.5414  MISS %:    41.4586   MPKI: 79.9302
L1I LOAD      ACCESS:    9639751  HIT:    5643243  MISS:    3996508  HIT %:    58.5414  MISS %:    41.4586   MPKI: 79.9302
L1I PREFETCH  REQUESTED:          0  ISSUED:          0  USEFUL:          0  USELESS:          0
L1I USEFUL LOAD PREFETCHES:          0 PREFETCH ISSUED TO LOWER LEVEL:          0  ACCURACY: -nan
L1I TIMELY PREFETCHES:          0 LATE PREFETCHES: 0 DROPPED PREFETCHES: 0
L1I PREFETCHES SAME FILL-ORIGIN LEVEL: 0 DIFFERENT FILL-ORIGIN LEVEL: 0
L1I AVERAGE MISS LATENCY: 14.175 cycles
L1I RQ	ACCESS:   14761717	FORWARD:          0	MERGED:    4104101	TO_CACHE:   10657616

BTB TOTAL     ACCESS:    5416946  HIT:    4897168  MISS:     519778  HIT %:    90.4046  MISS %:    9.59541   MPKI: 10.3956
BTB BRANCH_DIRECT_JUMP	ACCESS:     540054  HIT:     527588  MISS:      12466
BTB BRANCH_INDIRECT	ACCESS:      59163  HIT:      59065  MISS:         98
BTB BRANCH_CONDITIONAL	ACCESS:    2342991  HIT:    2302512  MISS:      40479
BTB BRANCH_DIRECT_CALL	ACCESS:    1004108  HIT:     967236  MISS:      36872
BTB BRANCH_INDIRECT_CALL	ACCESS:     233270  HIT:     188049  MISS:      45221
BTB BRANCH_RETURN	ACCESS:    1237360  HIT:     852718  MISS:     384642
BTB BRANCH_OTHER ACCESS:          0  HIT:          0  MISS:          0

L2C TOTAL     ACCESS:    5026618  HIT:    4749418  MISS:     277200  HIT %:    94.4854  MISS %:    5.51464   MPKI: 5.544
L2C LOAD      ACCESS:    4377380  HIT:    4230532  MISS:     146848  HIT %:    96.6453  MISS %:     3.3547   MPKI: 2.93696
L2C DATA LOAD MPKI: 2.76416
L2C INSTRUCTION LOAD MPKI: 0.1728
L2C RFO       ACCESS:      64011  HIT:      33991  MISS:      30020  HIT %:    53.1018  MISS %:    46.8982   MPKI: 0.6004
L2C PREFETCH  ACCESS:     341490  HIT:     247258  MISS:      94232  HIT %:    72.4056  MISS %:    27.5944   MPKI: 1.88464
L2C DATA PREFETCH MPKI: 1.88464
L2C INSTRUCTION PREFETCH MPKI: 0
L2C WRITEBACK ACCESS:     235656  HIT:     235056  MISS:        600  HIT %:    99.7454  MISS %:   0.254608   MPKI: 0.012
L2C LOAD TRANSLATION ACCESS:       8081  HIT:       2581  MISS:       5500  HIT %:    31.9391  MISS %:    68.0609   MPKI: 0.11
L2C PREFETCH  REQUESTED:     304105  ISSUED:     304105  USEFUL:      33353  USELESS:      60955
L2C USEFUL LOAD PREFETCHES:      33353 PREFETCH ISSUED TO LOWER LEVEL:      94906  ACCURACY: 35.1432
L2C TIMELY PREFETCHES:      33353 LATE PREFETCHES: 674 DROPPED PREFETCHES: 0
L2C PREFETCHES SAME FILL-ORIGIN LEVEL: 76013 DIFFERENT FILL-ORIGIN LEVEL: 0
L2C AVERAGE MISS LATENCY: 47.5874 cycles
L2C RQ	ACCESS:    4449475	FORWARD:          0	MERGED:          0	TO_CACHE:    4449472
L2C WQ	ACCESS:     235656	FORWARD:          4	MERGED:          0	TO_CACHE:     235656
L2C PQ	ACCESS:     359620	FORWARD:          0	MERGED:       6816	TO_CACHE:     352803

L2C Instructions Evicting Data 7917
L2C Translations Evicting Data 5118
L2C Data Evicting Data 249432
L2C Instructions Evicting Instructions 542
L2C Translations Evicting Instructions 202
L2C Data Evicting Instructions 7891
L2C Instructions Evicting Translations 181
L2C Translations Evicting Translations 178
L2C Data Evicting Translations 5120
L2C Dense regions hint from L2: 0
PSCL5 TOTAL     ACCESS:       5833  HIT:       5833  MISS:          0  HIT %:        100  MISS %:          0   MPKI: 0
PSCL5 LOAD TRANSLATION ACCESS:       5833  HIT:       5833  MISS:          0  HIT %:        100  MISS %:          0   MPKI: 0
PSCL5 PREFETCH  REQUESTED:          0  ISSUED:          0  USEFUL:          0  USELESS:          0
PSCL5 USEFUL LOAD PREFETCHES:          0 PREFETCH ISSUED TO LOWER LEVEL:          0  ACCURACY: -nan
PSCL5 TIMELY PREFETCHES:          0 LATE PREFETCHES: 0 DROPPED PREFETCHES: 0
PSCL5 PREFETCHES SAME FILL-ORIGIN LEVEL: 0 DIFFERENT FILL-ORIGIN LEVEL: 0

PSCL4 TOTAL     ACCESS:       5833  HIT:       5833  MISS:          0  HIT %:        100  MISS %:          0   MPKI: 0
PSCL4 LOAD TRANSLATION ACCESS:       5833  HIT:       5833  MISS:          0  HIT %:        100  MISS %:          0   MPKI: 0
PSCL4 PREFETCH  REQUESTED:          0  ISSUED:          0  USEFUL:          0  USELESS:          0
PSCL4 USEFUL LOAD PREFETCHES:          0 PREFETCH ISSUED TO LOWER LEVEL:          0  ACCURACY: -nan
PSCL4 TIMELY PREFETCHES:          0 LATE PREFETCHES: 0 DROPPED PREFETCHES: 0
PSCL4 PREFETCHES SAME FILL-ORIGIN LEVEL: 0 DIFFERENT FILL-ORIGIN LEVEL: 0

PSCL3 TOTAL     ACCESS:       5809  HIT:       5779  MISS:         30  HIT %:    99.4836  MISS %:    0.51644   MPKI: 0.0006
PSCL3 LOAD TRANSLATION ACCESS:       5809  HIT:       5779  MISS:         30  HIT %:    99.4836  MISS %:    0.51644   MPKI: 0.0006
PSCL3 PREFETCH  REQUESTED:          0  ISSUED:          0  USEFUL:          0  USELESS:          0
PSCL3 USEFUL LOAD PREFETCHES:          0 PREFETCH ISSUED TO LOWER LEVEL:          0  ACCURACY: -nan
PSCL3 TIMELY PREFETCHES:          0 LATE PREFETCHES: 0 DROPPED PREFETCHES: 0
PSCL3 PREFETCHES SAME FILL-ORIGIN LEVEL: 0 DIFFERENT FILL-ORIGIN LEVEL: 0

PSCL2 TOTAL     ACCESS:       5833  HIT:       3588  MISS:       2245  HIT %:    61.5121  MISS %:    38.4879   MPKI: 0.0449
PSCL2 LOAD TRANSLATION ACCESS:       5833  HIT:       3588  MISS:       2245  HIT %:    61.5121  MISS %:    38.4879   MPKI: 0.0449
PSCL2 PREFETCH  REQUESTED:          0  ISSUED:          0  USEFUL:          0  USELESS:          0
PSCL2 USEFUL LOAD PREFETCHES:          0 PREFETCH ISSUED TO LOWER LEVEL:          0  ACCURACY: -nan
PSCL2 TIMELY PREFETCHES:          0 LATE PREFETCHES: 0 DROPPED PREFETCHES: 0
PSCL2 PREFETCHES SAME FILL-ORIGIN LEVEL: 0 DIFFERENT FILL-ORIGIN LEVEL: 0

LLC TOTAL     ACCESS:     405084  HIT:     374612  MISS:      30472  HIT %:    92.4776  MISS %:    7.52239   MPKI: 0.60944
LLC LOAD      ACCESS:     146174  HIT:     131324  MISS:      14850  HIT %:    89.8409  MISS %:    10.1591   MPKI: 0.297
LLC RFO       ACCESS:      30020  HIT:      24151  MISS:       5869  HIT %:    80.4497  MISS %:    19.5503   MPKI: 0.11738
LLC PREFETCH  ACCESS:      94906  HIT:      85819  MISS:       9087  HIT %:    90.4253  MISS %:    9.57474   MPKI: 0.18174
LLC WRITEBACK ACCESS:     128484  HIT:     128372  MISS:        112  HIT %:    99.9128  MISS %:  0.0871704   MPKI: 0.00224
LLC LOAD TRANSLATION ACCESS:       5500  HIT:       4946  MISS:        554  HIT %:    89.9273  MISS %:    10.0727   MPKI: 0.01108
LLC PREFETCH  REQUESTED:          0  ISSUED:          0  USEFUL:        562  USELESS:       4593
LLC USEFUL LOAD PREFETCHES:        562 PREFETCH ISSUED TO LOWER LEVEL:       9087  ACCURACY: 6.18466
LLC TIMELY PREFETCHES:        562 LATE PREFETCHES: 0 DROPPED PREFETCHES: 0
LLC PREFETCHES SAME FILL-ORIGIN LEVEL: 0 DIFFERENT FILL-ORIGIN LEVEL: 0
LLC AVERAGE MISS LATENCY: 160.363 cycles
LLC RQ	ACCESS:     181694	FORWARD:          0	MERGED:          0	TO_CACHE:     181694
LLC WQ	ACCESS:     128484	FORWARD:          0	MERGED:          0	TO_CACHE:     128484
LLC PQ	ACCESS:      94906	FORWARD:          0	MERGED:          0	TO_CACHE:      94906

LLC Dense regions hint to LLC: 0

RAW hits: 728895
Loads Generated: 12486539
Loads sent to L1D: 11757644
Stores Generated: 6389161
Stores sent to L1D: 6389167
Major fault: 0 Minor fault: 4736
Allocated PAGES: 4736

stream: 
stream:times selected: 194803
stream:pref_filled: 33277
stream:pref_useful: 10988
stream:pref_late: 825
stream:misses: 470
stream:misses_by_poll: 0

CS: 
CS:times selected: 4716
CS:pref_filled: 1129
CS:pref_useful: 419
CS:pref_late: 679
CS:misses: 652
CS:misses_by_poll: 0

CPLX: 
CPLX:times selected: 187037
CPLX:pref_filled: 28207
CPLX:pref_useful: 7128
CPLX:pref_late: 187
CPLX:misses: 5338
CPLX:misses_by_poll: 1

NL_L1: 
NL:times selected: 4250
NL:pref_filled: 221
NL:pref_useful: 63
NL:pref_late: 0
NL:misses: 20
NL:misses_by_poll: 0

total selections: 390806
total_filled: 55515
total_useful: 16598
total_late: 1693
total_polluted: 1
total_misses_after_warmup: 405290
conflicts: 3696241
Degree Incremented Times: 1
Degree Decremented Times: 66535

L1 IP Table Write Accesses: 4217642
L1 IP Table Read Accesses: 521401
L1 RST Write Accesses: 165579
L1 RST Read Accesses: 331158
L1 CSPT Write Accesses: 165579
L1 CSPT Read Accesses: 326387
L1 RR Filter Tag Write Accesses: 208319
L1 RR Filter Tag Read Accesses: 9020111
L1 IP Table Tag Write Accesses: 8082717
L1 IP Table Tag Read Accesses: 8082717
L1 RST Tag Write Accesses: 0
L1 RST Tag Read Accesses: 1527603
L1 RR Filter Write Accesses: 0
L1 RR Filter Read Accesses: 294333
test: 70498
L2 IP Table Read Accesses: 556546
L2 IP Table Write Accesses: 726183
L2 IP Table Tag Read Accesses: 431488
L2 IP Table Tag Write Accesses: 431488

DRAM Statistics
 CHANNEL 0
 RQ ROW_BUFFER_HIT:       6969  ROW_BUFFER_MISS:      23391
 DBUS_CONGESTED:       8875
 WQ ROW_BUFFER_HIT:        453  ROW_BUFFER_MISS:       4837  FULL:          0

 AVG_CONGESTED_CYCLE: 9
 All warmup complete: 2
Channel 0 Bank busy for read cycles: 0
Channel 0 Bank busy for write cycles: 0
Channel 0
Rank 0
0banks busy for read cycles: 86000663
0banks busy for write cycles: 4136
1banks busy for read cycles: 1561461
1banks busy for write cycles: 659486
2banks busy for read cycles: 858768
2banks busy for write cycles: 86062
3banks busy for read cycles: 97966
3banks busy for write cycles: 12178
4banks busy for read cycles: 25619
4banks busy for write cycles: 6220
5banks busy for read cycles: 9243
5banks busy for write cycles: 3665
6banks busy for read cycles: 7188
6banks busy for write cycles: 1723
7banks busy for read cycles: 8870
7banks busy for write cycles: 586
8banks busy for read cycles: 19433
8banks busy for write cycles: 1230

CPU 0 Branch Prediction Accuracy: 96.3938% MPKI: 6.5053 Average ROB Occupancy at Mispredict: 21.7043
Branch types
NOT_BRANCH: 40980217 81.9604%
BRANCH_DIRECT_JUMP: 540054 1.08011%
BRANCH_INDIRECT: 59163 0.118326%
BRANCH_CONDITIONAL: 5945671 11.8913%
BRANCH_DIRECT_CALL: 1004108 2.00822%
BRANCH_INDIRECT_CALL: 233270 0.46654%
BRANCH_RETURN: 1237360 2.47472%
BRANCH_OTHER: 0 0%

@sumon_overall_L1D     16598      1439     38923     55515    416386    416483
@Sumon_Early_by_class_L1D      9003        71      5840         0
@Sumon_Late_by_class_L1D       615       679        97         0

@Sumon_Early_by_cycle_L1D       828       366        24        16       284      2970      1255      1337      6452      2590       260       216
@Sumon_Late_by_cycle_L1D       480       618       292         2         0         0         0         0         0         0         0         0
@Sumon_Early_stream_L1D       514        74        12        10        30      1374       801       726      3875      1405       124        58
@Sumon_Early_CS_L1D        57        13         0         0         1         0         0         0         0         0         0         0
@Sumon_Early_CPLX_L1D       199       250         8         6         0      1079       313       571      2478       671       126       139
@Sumon_Late_stream_L1D        88       356       169         2         0         0         0         0         0         0         0         0
@Sumon_Late_CS_L1D       296       261       122         0         0         0         0         0         0         0         0         0
@Sumon_Late_CPLX_L1D        95         1         1         0         0         0         0         0         0         0         0         0
@sumon_overall_L2C     33353       674     60955     94232    304105    304105
@Sumon_Early_by_class_L2C       927         0       694         0
@Sumon_Late_by_class_L2C         0         4         0         0

@Sumon_Early_by_cycle_L2C      2109      3088      6770       936      1644      8553      1155       646      1271      3852       225      3104
@Sumon_Late_by_cycle_L2C       628        44         2         0         0         0         0         0         0         0         0         0
@Sumon_Early_stream_L2C         0         0         0         0         0         0         0         0        56        15        29       827
@Sumon_Early_CS_L2C         0         0         0         0         0         0         0         0         0         0         0         0
@Sumon_Early_CPLX_L2C         0         0         0         0         0         0         0         3        16        49        19       607
@Sumon_Late_stream_L2C         0         0         0         0         0         0         0         0         0         0         0         0
@Sumon_Late_CS_L2C         0         3         1         0         0         0         0         0         0         0         0         0
@Sumon_Late_CPLX_L2C         0         0         0         0         0         0         0         0         0         0         0         0
DRAM PAGES: 1048576
Allocated PAGES: 4736
