
*** ChampSim Multicore Out-of-Order Simulator ***

Warmup Instructions: 50000000
Simulation Instructions: 50000000
Number of CPUs: 1
LLC sets: 2048
LLC ways: 16
Off-chip DRAM Size: 4096 MB Channels: 1 Width: 64-bit Data Rate: 6400 MT/s
CPU 0 runs ../../biswa/SPEC2017Traces/603.bwaves_s-891B.champsimtrace.xz
.xz
CPU 0 Bimodal branch predictor
BTB has LRU replacement policy
ITLB has LRU replacement policy
DTLB has LRU replacement policy
STLB has LRU replacement policy
L1I has LRU replacement policy
IP Table Entries: 256
L1D has LRU replacement policy
IP_Table L2 entries: 256
Initialize DRRIP state for L2C
epoch: 1000
next table: 1038
cur table: 1349
epoch: 1000
next table: 1030
cur table: 1038
epoch: 1000
next table: 1038
cur table: 1030
epoch: 1000
next table: 1037
cur table: 1038
epoch: 1000
next table: 1038
cur table: 1037
epoch: 1000
next table: 1038
cur table: 1038
epoch: 1000
next table: 1037
cur table: 1038
epoch: 1000
next table: 1036
cur table: 1037
epoch: 1000
next table: 1037
cur table: 1036
epoch: 1000
next table: 1036
cur table: 1037
epoch: 1000
next table: 1036
cur table: 1036
epoch: 1000
next table: 1028
cur table: 1036
epoch: 1000
next table: 1036
cur table: 1028
epoch: 1000
next table: 1036
cur table: 1036
epoch: 1000
next table: 1038
cur table: 1036
epoch: 1000
next table: 1036
cur table: 1038
epoch: 1000
next table: 1038
cur table: 1036
epoch: 1000
next table: 1036
cur table: 1038
epoch: 1000
next table: 1040
cur table: 1036
epoch: 1000
next table: 1036
cur table: 1040
epoch: 1000
next table: 1035
cur table: 1036
epoch: 1000
next table: 1031
cur table: 1035
epoch: 1000
next table: 1038
cur table: 1031
epoch: 1000
next table: 1036
cur table: 1038
epoch: 1000
next table: 1046
cur table: 1036
epoch: 1000
next table: 1036
cur table: 1604
epoch: 1000
next table: 1032
cur table: 1046
epoch: 1000
next table: 1022
cur table: 1036
epoch: 1000
next table: 1038
cur table: 1032
epoch: 1000
next table: 1018
cur table: 1022
epoch: 1000
next table: 1036
cur table: 1038
epoch: 1000
next table: 1018
cur table: 1018
epoch: 1000
next table: 1036
cur table: 1036
epoch: 1000
next table: 1018
cur table: 1018
epoch: 1000
next table: 1038
cur table: 1036
epoch: 1000
next table: 1018
cur table: 1018
epoch: 1000
next table: 1030
cur table: 1038
epoch: 1000
next table: 1018
cur table: 1018
epoch: 1000
next table: 1036
cur table: 1030
epoch: 1000
next table: 1018
cur table: 1018
epoch: 1000
next table: 1036
cur table: 1036
epoch: 1000
next table: 1018
cur table: 1018
epoch: 1000
next table: 1036
cur table: 1036
epoch: 1000
next table: 1014
cur table: 1018
epoch: 1000
next table: 1036
cur table: 1036
epoch: 1000
next table: 1018
cur table: 1014
epoch: 1000
next table: 1036
cur table: 1036
epoch: 1000
next table: 1018
cur table: 1018
epoch: 1000
next table: 1036
cur table: 1036
epoch: 1000
next table: 1018
cur table: 1018
epoch: 1000
next table: 1034
cur table: 1036
epoch: 1000
next table: 1018
cur table: 1018
epoch: 1000
next table: 1034
cur table: 1034
epoch: 1000
next table: 1018
cur table: 1018
epoch: 1000
next table: 1038
cur table: 1034
epoch: 1000
next table: 1018
cur table: 1018
epoch: 1000
next table: 1028
cur table: 1038
epoch: 1000
next table: 1018
cur table: 1018
epoch: 1000
next table: 1036
cur table: 1028
epoch: 1000
next table: 1018
cur table: 1018
epoch: 1000
next table: 1036
cur table: 1036
epoch: 1000
next table: 1018
cur table: 1018
epoch: 1000
next table: 1036
cur table: 1036
epoch: 1000
next table: 1012
cur table: 1018
epoch: 1000
next table: 1036
cur table: 1036
epoch: 1000
next table: 1018
cur table: 1012
epoch: 1000
next table: 1037
cur table: 1036
epoch: 1000
next table: 1018
cur table: 1018
epoch: 1000
next table: 1034
cur table: 1037
epoch: 1000
next table: 1018
cur table: 1018
epoch: 1000
next table: 1036
cur table: 1034
epoch: 1000
next table: 1018
cur table: 1018
epoch: 1000
next table: 1036
cur table: 1036
epoch: 1000
next table: 1018
cur table: 1018
epoch: 1000
next table: 1038
cur table: 1036
epoch: 1000
next table: 1018
cur table: 1018
epoch: 1000
next table: 1028
cur table: 1038
epoch: 1000
next table: 1018
cur table: 1018
epoch: 1000
next table: 1038
cur table: 1028
epoch: 1000
next table: 1018
cur table: 1018
epoch: 1000
next table: 1036
cur table: 1038
epoch: 1000
next table: 1018
cur table: 1018
epoch: 1000
next table: 1038
cur table: 1036
epoch: 1000
next table: 1014
cur table: 1018
epoch: 1000
next table: 1036
cur table: 1038
epoch: 1000
next table: 1018
cur table: 1014
epoch: 1000
next table: 1036
cur table: 1036
epoch: 1000
next table: 1018
cur table: 1018
epoch: 1000
next table: 1036
cur table: 1036
epoch: 1000
next table: 1018
cur table: 1018
epoch: 1000
next table: 1038
cur table: 1036
epoch: 1000
next table: 1018
cur table: 1018
epoch: 1000
next table: 1034
cur table: 1038
epoch: 1000
next table: 1018
cur table: 1018
epoch: 1000
next table: 1036
cur table: 1034
epoch: 1000
next table: 1022
cur table: 1018
epoch: 1000
next table: 1034
cur table: 1036
epoch: 1000
next table: 1018
cur table: 1022
epoch: 1000
next table: 1038
cur table: 1034
epoch: 1000
next table: 1018
cur table: 1018
epoch: 1000
next table: 1038
cur table: 1038
epoch: 1000
next table: 1015
cur table: 1018
epoch: 1000
next table: 1036
cur table: 1038
epoch: 1000
next table: 1017
cur table: 1015
epoch: 1000
next table: 1038
cur table: 1036
epoch: 1000
next table: 1018
cur table: 1017
epoch: 1000
next table: 1034
cur table: 1038
epoch: 1000
next table: 1018
cur table: 1018
epoch: 1000
next table: 1038
cur table: 1034
epoch: 1000
next table: 1018
cur table: 1018
epoch: 1000
next table: 1034
cur table: 1038
epoch: 1000
next table: 1019
cur table: 1018
epoch: 1000
next table: 1032
cur table: 1034
epoch: 1000
next table: 1019
cur table: 1019
epoch: 1000
next table: 1029
cur table: 1032
epoch: 1000
next table: 1018
cur table: 1019
epoch: 1000
next table: 1036
cur table: 1029
epoch: 1000
next table: 1018
cur table: 1018
epoch: 1000
next table: 1037
cur table: 1036
epoch: 1000
next table: 1018
cur table: 1018
epoch: 1000
next table: 1036
cur table: 1037
epoch: 1000
next table: 1014
cur table: 1018
epoch: 1000
next table: 1034
cur table: 1036
epoch: 1000
next table: 1018
cur table: 1014
epoch: 1000
next table: 1036
cur table: 1034
epoch: 1000
next table: 1018
cur table: 1018
epoch: 1000
next table: 1034
cur table: 1036
epoch: 1000
next table: 1018
cur table: 1018
epoch: 1000
next table: 1036
cur table: 1034
epoch: 1000
next table: 1018
cur table: 1018
epoch: 1000
next table: 1034
cur table: 1036
epoch: 1000
next table: 1018
cur table: 1018
epoch: 1000
next table: 1034
cur table: 1034
epoch: 1000
next table: 1019
cur table: 1018
epoch: 1000
next table: 1026
cur table: 1034
epoch: 1000
next table: 1018
cur table: 1019
epoch: 1000
next table: 1038
cur table: 1026
epoch: 1000
next table: 1018
cur table: 1018
epoch: 1000
next table: 1034
cur table: 1038
epoch: 1000
next table: 1018
cur table: 1018
epoch: 1000
next table: 1038
cur table: 1034
epoch: 1000
next table: 1012
cur table: 1018
epoch: 1000
next table: 1035
cur table: 1038
epoch: 1000
next table: 1018
cur table: 1012
epoch: 1000
next table: 1038
cur table: 1035
epoch: 1000
next table: 1018
cur table: 1018
epoch: 1000
next table: 1036
cur table: 1038
epoch: 1000
next table: 1018
cur table: 1018
epoch: 1000
next table: 1036
cur table: 1036
epoch: 1000
next table: 1018
cur table: 1018
epoch: 1000
next table: 1037
cur table: 1036
epoch: 1000
next table: 1018
cur table: 1018
epoch: 1000
next table: 1040
cur table: 1037
epoch: 1000
next table: 1018
cur table: 1018
epoch: 1000
next table: 1026
cur table: 1040
epoch: 1000
next table: 1018
cur table: 1018
epoch: 1000
next table: 1036
cur table: 1026
epoch: 1000
next table: 1019
cur table: 1018
epoch: 1000
next table: 1034
cur table: 1036
epoch: 1000
next table: 1018
cur table: 1019
epoch: 1000
next table: 1034
cur table: 1034
epoch: 1000
next table: 1014
cur table: 1018
epoch: 1000
next table: 1037
cur table: 1034
epoch: 1000
next table: 1018
cur table: 1014
epoch: 1000
next table: 1034
cur table: 1037
epoch: 1000
next table: 1022
cur table: 1018
epoch: 1000
next table: 1042
cur table: 1034
epoch: 1000
next table: 1018
cur table: 1022
epoch: 1000
next table: 1036
cur table: 1042
epoch: 1000
next table: 1037
cur table: 1036
epoch: 1000
next table: 1028
cur table: 1018
epoch: 1000
next table: 1033
cur table: 1037
epoch: 1000
next table: 1026
cur table: 1028
epoch: 1000
next table: 1031
cur table: 1033
epoch: 1000
next table: 1036
cur table: 1031
epoch: 1000
next table: 1038
cur table: 1036
epoch: 1000
next table: 1036
cur table: 1038
epoch: 1000
next table: 1036
cur table: 1036
epoch: 1000
next table: 1038
cur table: 1036
epoch: 1000
next table: 1038
cur table: 1038
epoch: 1000
next table: 1034
cur table: 1038
epoch: 1000
next table: 1035
cur table: 1034
epoch: 1000
next table: 1030
cur table: 1035
epoch: 1000
next table: 1038
cur table: 1030
epoch: 1000
next table: 1038
cur table: 1038
epoch: 1000
next table: 1038
cur table: 1038
epoch: 1000
next table: 1038
cur table: 1038
epoch: 1000
next table: 1038
cur table: 1038
epoch: 1000
next table: 1038
cur table: 1038
epoch: 1000
next table: 1038
cur table: 1038
epoch: 1000
next table: 1036
cur table: 1038
epoch: 1000
next table: 1038
cur table: 1036
epoch: 1000
next table: 1028
cur table: 1038
epoch: 1000
next table: 1038
cur table: 1028
epoch: 1000
next table: 1038
cur table: 1038
epoch: 1000
next table: 1038
cur table: 1038
epoch: 1000
next table: 1039
cur table: 1038
epoch: 1000
next table: 1036
cur table: 1039
epoch: 1000
next table: 1038
cur table: 1036
epoch: 1000
next table: 1035
cur table: 1038
epoch: 1000
next table: 1036
cur table: 1035
epoch: 1000
next table: 1038
cur table: 1036
epoch: 1000
next table: 1028
cur table: 1038
epoch: 1000
next table: 1036
cur table: 1028
epoch: 1000
next table: 1040
cur table: 1036
epoch: 1000
next table: 1036
cur table: 1040
epoch: 1000
next table: 1036
cur table: 1036
epoch: 1000
next table: 1036
cur table: 1036
epoch: 1000
next table: 1034
cur table: 1036
epoch: 1000
next table: 1038
cur table: 1034
epoch: 1000
next table: 1036
cur table: 1038
epoch: 1000
next table: 1035
cur table: 1036
epoch: 1000
next table: 1031
cur table: 1035
epoch: 1000
next table: 1037
cur table: 1031
epoch: 1000
next table: 1038
cur table: 1037
epoch: 1000
next table: 1036
cur table: 1038
epoch: 1000
next table: 1037
cur table: 1036
epoch: 1000
next table: 1038
cur table: 1037
epoch: 1000
next table: 1038
cur table: 1038
epoch: 1000
next table: 1036
cur table: 1038
epoch: 1000
next table: 1038
cur table: 1036
epoch: 1000
next table: 1034
cur table: 1038
epoch: 1000
next table: 1035
cur table: 1034
epoch: 1000
next table: 1038
cur table: 1035
epoch: 1000
next table: 1038
cur table: 1038
epoch: 1000
next table: 1038
cur table: 1038
epoch: 1000
next table: 1034
cur table: 1038
epoch: 1000
next table: 1038
cur table: 1034
epoch: 1000
next table: 1036
cur table: 1038
epoch: 1000
next table: 1036
cur table: 1036
epoch: 1000
next table: 1038
cur table: 1036
epoch: 1000
next table: 1026
cur table: 1038
epoch: 1000
next table: 1038
cur table: 1026
epoch: 1000
next table: 1036
cur table: 1038
epoch: 1000
next table: 1038
cur table: 1036
epoch: 1000
next table: 1036
cur table: 1038
epoch: 1000
next table: 1038
cur table: 1036
epoch: 1000
next table: 1036
cur table: 1038
epoch: 1000
next table: 1034
cur table: 1036
epoch: 1000
next table: 1039
cur table: 1034
epoch: 1000
next table: 1036
cur table: 1039
epoch: 1000
next table: 1026
cur table: 1036
epoch: 1000
next table: 1038
cur table: 1026
epoch: 1000
next table: 1034
cur table: 1038
epoch: 1000
next table: 1038
cur table: 1034
epoch: 1000
next table: 1036
cur table: 1038
epoch: 1000
next table: 1036
cur table: 1036
epoch: 1000
next table: 1036
cur table: 1036
epoch: 1000
next table: 1036
cur table: 1036
epoch: 1000
next table: 1036
cur table: 1036
epoch: 1000
next table: 1036
cur table: 1036
epoch: 1000
next table: 1024
cur table: 1036
epoch: 1000
next table: 1038
cur table: 1024
epoch: 1000
next table: 1032
cur table: 1038
epoch: 1000
next table: 1036
cur table: 1032
epoch: 1000
next table: 1036
cur table: 1036
epoch: 1000
next table: 1036
cur table: 1036
epoch: 1000
next table: 1034
cur table: 1036
epoch: 1000
next table: 1036
cur table: 1034
epoch: 1000
next table: 1038
cur table: 1036
epoch: 1000
next table: 1038
cur table: 1038
epoch: 1000
next table: 1029
cur table: 1038
epoch: 1000
next table: 2577
cur table: 1026
epoch: 1000
next table: 1036
cur table: 1029
epoch: 1000
next table: 1036
cur table: 1036
epoch: 1000
next table: 1036
cur table: 1036
epoch: 1000
next table: 1038
cur table: 1036
epoch: 1000
next table: 1036
cur table: 1038
epoch: 1000
next table: 1038
cur table: 1036
epoch: 1000
next table: 1034
cur table: 1038
epoch: 1000
next table: 1038
cur table: 1034
epoch: 1000
next table: 1038
cur table: 1038
epoch: 1000
next table: 1030
cur table: 1038
epoch: 1000
next table: 1038
cur table: 1030
epoch: 1000
next table: 1038
cur table: 1038
epoch: 1000
next table: 1036
cur table: 1038
epoch: 1000
next table: 1040
cur table: 1036
epoch: 1000
next table: 1034
cur table: 1040
epoch: 1000
next table: 1038
cur table: 1034
epoch: 1000
next table: 1034
cur table: 1038
epoch: 1000
next table: 1036
cur table: 1034
epoch: 1000
next table: 1028
cur table: 1036
epoch: 1000
next table: 1036
cur table: 1028
epoch: 1000
next table: 1038
cur table: 1036
epoch: 1000
next table: 1036
cur table: 1038
epoch: 1000
next table: 1036
cur table: 1036
epoch: 1000
next table: 1034
cur table: 1036
epoch: 1000
next table: 1038
cur table: 1034
epoch: 1000
next table: 1036
cur table: 1038
epoch: 1000
next table: 1038
cur table: 1036
epoch: 1000
next table: 1036
cur table: 1038
epoch: 1000
next table: 1030
cur table: 1036
epoch: 1000
next table: 1036
cur table: 1030
epoch: 1000
next table: 1036
cur table: 1036
epoch: 1000
next table: 1034
cur table: 1036
epoch: 1000
next table: 1038
cur table: 1034
epoch: 1000
next table: 1038
cur table: 1038
epoch: 1000
next table: 1036
cur table: 1038
epoch: 1000
next table: 1037
cur table: 1036
epoch: 1000
next table: 1035
cur table: 1037
epoch: 1000
next table: 1036
cur table: 1035
epoch: 1000
next table: 1032
cur table: 1036
epoch: 1000
next table: 1036
cur table: 1032
epoch: 1000
next table: 1036
cur table: 1036
epoch: 1000
next table: 1035
cur table: 1036
epoch: 1000
next table: 1036
cur table: 1035
epoch: 1000
next table: 1036
cur table: 1036
epoch: 1000
next table: 1036
cur table: 1036
epoch: 1000
next table: 1034
cur table: 1036
epoch: 1000
next table: 1038
cur table: 1034
epoch: 1000
next table: 1037
cur table: 1038
epoch: 1000
next table: 1034
cur table: 1037
epoch: 1000
next table: 1036
cur table: 1034
epoch: 1000
next table: 1038
cur table: 1036
epoch: 1000
next table: 1036
cur table: 1038
epoch: 1000
next table: 1037
cur table: 1036
epoch: 1000
next table: 1036
cur table: 1037
epoch: 1000
next table: 1036
cur table: 1036
epoch: 1000
next table: 1036
cur table: 1036
epoch: 1000
next table: 1038
cur table: 1036
epoch: 1000
next table: 1034
cur table: 1038
epoch: 1000
next table: 1032
cur table: 1034
epoch: 1000
next table: 1036
cur table: 1032
epoch: 1000
next table: 1036
cur table: 1036
epoch: 1000
next table: 1036
cur table: 1036
epoch: 1000
next table: 1035
cur table: 1036
epoch: 1000
next table: 1036
cur table: 1035
epoch: 1000
next table: 1036
cur table: 1036
epoch: 1000
next table: 1036
cur table: 1036
epoch: 1000
next table: 1032
cur table: 1036
epoch: 1000
next table: 1028
cur table: 1032
epoch: 1000
next table: 1034
cur table: 1028
epoch: 1000
next table: 1036
cur table: 1034
epoch: 1000
next table: 1034
cur table: 1036
epoch: 1000
next table: 1038
cur table: 1034
epoch: 1000
next table: 1034
cur table: 1038
epoch: 1000
next table: 1038
cur table: 1034
Heartbeat CPU 0 instructions: 10000003 cycles: 2716412 heartbeat IPC: 3.68133 cumulative IPC: 3.68133 (Simulation time: 0 hr 3 min 16 sec) 
epoch: 1000
next table: 1034
cur table: 1038
epoch: 1000
next table: 1036
cur table: 1034
epoch: 1000
next table: 1034
cur table: 1036
epoch: 1000
next table: 1028
cur table: 1034
epoch: 1000
next table: 1036
cur table: 1028
epoch: 1000
next table: 1037
cur table: 1036
epoch: 1000
next table: 1036
cur table: 1037
epoch: 1000
next table: 1037
cur table: 1036
epoch: 1000
next table: 1036
cur table: 1037
epoch: 1000
next table: 1038
cur table: 1036
epoch: 1000
next table: 1036
cur table: 1038
epoch: 1000
next table: 1038
cur table: 1036
epoch: 1000
next table: 1034
cur table: 1038
epoch: 1000
next table: 1030
cur table: 1034
epoch: 1000
next table: 1036
cur table: 1030
epoch: 1000
next table: 1036
cur table: 1036
epoch: 1000
next table: 1034
cur table: 1036
epoch: 1000
next table: 1037
cur table: 1034
epoch: 1000
next table: 1034
cur table: 1037
epoch: 1000
next table: 1036
cur table: 1034
epoch: 1000
next table: 1034
cur table: 1036
epoch: 1000
next table: 1036
cur table: 1034
epoch: 1000
next table: 1036
cur table: 1036
epoch: 1000
next table: 1028
cur table: 1036
epoch: 1000
next table: 1038
cur table: 1028
epoch: 1000
next table: 1036
cur table: 1038
epoch: 1000
next table: 1038
cur table: 1036
epoch: 1000
next table: 1036
cur table: 1038
epoch: 1000
next table: 1038
cur table: 1036
epoch: 1000
next table: 1038
cur table: 1038
epoch: 1000
next table: 1038
cur table: 1038
epoch: 1000
next table: 1038
cur table: 1038
epoch: 1000
next table: 1030
cur table: 1038
epoch: 1000
next table: 1040
cur table: 1030
epoch: 1000
next table: 1036
cur table: 1040
epoch: 1000
next table: 1038
cur table: 1036
epoch: 1000
next table: 1038
cur table: 1038
epoch: 1000
next table: 1036
cur table: 1038
epoch: 1000
next table: 1038
cur table: 1036
epoch: 1000
next table: 1034
cur table: 1038
epoch: 1000
next table: 1038
cur table: 1034
epoch: 1000
next table: 1038
cur table: 1038
epoch: 1000
next table: 1028
cur table: 1038
epoch: 1000
next table: 1037
cur table: 1028
epoch: 1000
next table: 1037
cur table: 1037
epoch: 1000
next table: 1042
cur table: 1037
epoch: 1000
next table: 1038
cur table: 1042
epoch: 1000
next table: 1034
cur table: 1038
epoch: 1000
next table: 1038
cur table: 1034
epoch: 1000
next table: 1034
cur table: 1038
epoch: 1000
next table: 1036
cur table: 1034
epoch: 1000
next table: 1035
cur table: 1036
epoch: 1000
next table: 1029
cur table: 1035
epoch: 1000
next table: 1038
cur table: 1029
epoch: 1000
next table: 1036
cur table: 1038
epoch: 1000
next table: 1038
cur table: 1036
epoch: 1000
next table: 1036
cur table: 1038
epoch: 1000
next table: 1036
cur table: 1036
epoch: 1000
next table: 1036
cur table: 1036
epoch: 1000
next table: 1032
cur table: 1036
epoch: 1000
next table: 1036
cur table: 1032
epoch: 1000
next table: 1026
cur table: 1036
epoch: 1000
next table: 1036
cur table: 1026
epoch: 1000
next table: 1036
cur table: 1036
epoch: 1000
next table: 1034
cur table: 1036
epoch: 1000
next table: 1036
cur table: 1034
epoch: 1000
next table: 1036
cur table: 1036
epoch: 1000
next table: 1038
cur table: 1036
epoch: 1000
next table: 1037
cur table: 1038
epoch: 1000
next table: 1034
cur table: 1037
epoch: 1000
next table: 1036
cur table: 1034
epoch: 1000
next table: 1028
cur table: 1036
epoch: 1000
next table: 1036
cur table: 1028
epoch: 1000
next table: 1038
cur table: 1036
epoch: 1000
next table: 1038
cur table: 1038
epoch: 1000
next table: 1036
cur table: 1038
epoch: 1000
next table: 1036
cur table: 1036
epoch: 1000
next table: 1036
cur table: 1036
epoch: 1000
next table: 1037
cur table: 1036
epoch: 1000
next table: 1033
cur table: 1037
epoch: 1000
next table: 1038
cur table: 1033
epoch: 1000
next table: 1030
cur table: 1038
epoch: 1000
next table: 1038
cur table: 1030
epoch: 1000
next table: 1036
cur table: 1038
epoch: 1000
next table: 1038
cur table: 1036
epoch: 1000
next table: 1036
cur table: 1038
epoch: 1000
next table: 1038
cur table: 1036
epoch: 1000
next table: 1036
cur table: 1038
epoch: 1000
next table: 1034
cur table: 1036
epoch: 1000
next table: 1036
cur table: 1034
epoch: 1000
next table: 1034
cur table: 1036
epoch: 1000
next table: 1030
cur table: 1034
epoch: 1000
next table: 1038
cur table: 1030
epoch: 1000
next table: 1036
cur table: 1038
epoch: 1000
next table: 1039
cur table: 1036
epoch: 1000
next table: 1038
cur table: 1039
epoch: 1000
next table: 1036
cur table: 1038
epoch: 1000
next table: 1036
cur table: 1036
epoch: 1000
next table: 1036
cur table: 1036
epoch: 1000
next table: 1036
cur table: 1036
epoch: 1000
next table: 1030
cur table: 1036
epoch: 1000
next table: 1032
cur table: 1030
epoch: 1000
next table: 1036
cur table: 1032
epoch: 1000
next table: 1036
cur table: 1036
epoch: 1000
next table: 1038
cur table: 1036
epoch: 1000
next table: 1036
cur table: 1038
epoch: 1000
next table: 1036
cur table: 1036
epoch: 1000
next table: 1034
cur table: 1036
epoch: 1000
next table: 1038
cur table: 1034
epoch: 1000
next table: 1038
cur table: 1038
epoch: 1000
next table: 1029
cur table: 1038
epoch: 1000
next table: 1038
cur table: 1029
epoch: 1000
next table: 1038
cur table: 1038
epoch: 1000
next table: 1038
cur table: 1038
epoch: 1000
next table: 1038
cur table: 1038
epoch: 1000
next table: 1038
cur table: 1038
epoch: 1000
next table: 1042
cur table: 1038
epoch: 1000
next table: 1035
cur table: 1042
epoch: 1000
next table: 1037
cur table: 1035
epoch: 1000
next table: 1038
cur table: 1037
epoch: 1000
next table: 1027
cur table: 1038
epoch: 1000
next table: 1035
cur table: 1027
epoch: 1000
next table: 1035
cur table: 1035
epoch: 1000
next table: 1036
cur table: 1035
epoch: 1000
next table: 1034
cur table: 1036
epoch: 1000
next table: 1038
cur table: 1034
epoch: 1000
next table: 1034
cur table: 1038
epoch: 1000
next table: 1036
cur table: 1034
epoch: 1000
next table: 1036
cur table: 1036
epoch: 1000
next table: 1034
cur table: 1036
epoch: 1000
next table: 1027
cur table: 1034
epoch: 1000
next table: 1036
cur table: 1027
epoch: 1000
next table: 1035
cur table: 1036
epoch: 1000
next table: 1036
cur table: 1035
epoch: 1000
next table: 1036
cur table: 1036
epoch: 1000
next table: 1034
cur table: 1036
epoch: 1000
next table: 1036
cur table: 1034
epoch: 1000
next table: 1038
cur table: 1036
epoch: 1000
next table: 1034
cur table: 1038
epoch: 1000
next table: 1034
cur table: 1034
epoch: 1000
next table: 1028
cur table: 1034
epoch: 1000
next table: 1038
cur table: 1028
epoch: 1000
next table: 1032
cur table: 1038
epoch: 1000
next table: 1036
cur table: 1032
epoch: 1000
next table: 1034
cur table: 1036
epoch: 1000
next table: 1038
cur table: 1034
epoch: 1000
next table: 1034
cur table: 1038
epoch: 1000
next table: 1036
cur table: 1034
epoch: 1000
next table: 1034
cur table: 1036
epoch: 1000
next table: 1031
cur table: 1034
epoch: 1000
next table: 1034
cur table: 1031
epoch: 1000
next table: 1038
cur table: 1034
epoch: 1000
next table: 1040
cur table: 1038
epoch: 1000
next table: 1038
cur table: 1040
epoch: 1000
next table: 1036
cur table: 1038
epoch: 1000
next table: 1038
cur table: 1036
epoch: 1000
next table: 1036
cur table: 1038
epoch: 1000
next table: 1035
cur table: 1036
epoch: 1000
next table: 1038
cur table: 1035
epoch: 1000
next table: 1029
cur table: 1038
epoch: 1000
next table: 1038
cur table: 1029
epoch: 1000
next table: 1036
cur table: 1038
epoch: 1000
next table: 1037
cur table: 1036
epoch: 1000
next table: 1034
cur table: 1037
epoch: 1000
next table: 1036
cur table: 1034
epoch: 1000
next table: 1036
cur table: 1036
epoch: 1000
next table: 1036
cur table: 1036
epoch: 1000
next table: 1035
cur table: 1036
epoch: 1000
next table: 1030
cur table: 1035
epoch: 1000
next table: 1034
cur table: 1030
epoch: 1000
next table: 1036
cur table: 1034
epoch: 1000
next table: 1036
cur table: 1036
epoch: 1000
next table: 1040
cur table: 1036
epoch: 1000
next table: 1038
cur table: 1040
epoch: 1000
next table: 1038
cur table: 1038
epoch: 1000
next table: 1038
cur table: 1038
epoch: 1000
next table: 1036
cur table: 1038
epoch: 1000
next table: 1038
cur table: 1036
epoch: 1000
next table: 1028
cur table: 1038
epoch: 1000
next table: 1036
cur table: 1028
epoch: 1000
next table: 1036
cur table: 1036
epoch: 1000
next table: 1038
cur table: 1036
epoch: 1000
next table: 1036
cur table: 1038
epoch: 1000
next table: 1038
cur table: 1036
epoch: 1000
next table: 1036
cur table: 1038
epoch: 1000
next table: 1034
cur table: 1036
epoch: 1000
next table: 1036
cur table: 1034
epoch: 1000
next table: 1038
cur table: 1036
epoch: 1000
next table: 1028
cur table: 1038
epoch: 1000
next table: 1036
cur table: 1028
epoch: 1000
next table: 1038
cur table: 1036
epoch: 1000
next table: 1036
cur table: 1038
epoch: 1000
next table: 1038
cur table: 1036
epoch: 1000
next table: 1036
cur table: 1038
epoch: 1000
next table: 1038
cur table: 1036
epoch: 1000
next table: 1034
cur table: 1038
epoch: 1000
next table: 1036
cur table: 1034
epoch: 1000
next table: 1036
cur table: 1036
epoch: 1000
next table: 1028
cur table: 1036
epoch: 1000
next table: 1036
cur table: 1028
epoch: 1000
next table: 1034
cur table: 1036
epoch: 1000
next table: 1036
cur table: 1034
epoch: 1000
next table: 1038
cur table: 1036
epoch: 1000
next table: 1036
cur table: 1038
epoch: 1000
next table: 1038
cur table: 1036
epoch: 1000
next table: 1034
cur table: 1038
epoch: 1000
next table: 1038
cur table: 1034
epoch: 1000
next table: 1036
cur table: 1038
epoch: 1000
next table: 1030
cur table: 1036
epoch: 1000
next table: 1036
cur table: 1030
epoch: 1000
next table: 1036
cur table: 1036
epoch: 1000
next table: 1038
cur table: 1036
epoch: 1000
next table: 1036
cur table: 1038
epoch: 1000
next table: 1038
cur table: 1036
epoch: 1000
next table: 1038
cur table: 1038
epoch: 1000
next table: 1036
cur table: 1038
epoch: 1000
next table: 1038
cur table: 1036
epoch: 1000
next table: 1030
cur table: 1038
epoch: 1000
next table: 1038
cur table: 1030
epoch: 1000
next table: 1036
cur table: 1038
epoch: 1000
next table: 1038
cur table: 1036
epoch: 1000
next table: 1036
cur table: 1038
epoch: 1000
next table: 1042
cur table: 1036
epoch: 1000
next table: 1036
cur table: 1042
epoch: 1000
next table: 1038
cur table: 1036
epoch: 1000
next table: 1036
cur table: 1038
epoch: 1000
next table: 1038
cur table: 1036
epoch: 1000
next table: 1030
cur table: 1038
epoch: 1000
next table: 1036
cur table: 1030
epoch: 1000
next table: 1036
cur table: 1036
epoch: 1000
next table: 1036
cur table: 1036
epoch: 1000
next table: 1038
cur table: 1036
epoch: 1000
next table: 1036
cur table: 1038
epoch: 1000
next table: 1037
cur table: 1036
epoch: 1000
next table: 1035
cur table: 1037
epoch: 1000
next table: 1034
cur table: 1035
epoch: 1000
next table: 1039
cur table: 1034
epoch: 1000
next table: 1028
cur table: 1039
epoch: 1000
next table: 1036
cur table: 1028
epoch: 1000
next table: 1038
cur table: 1036
epoch: 1000
next table: 1036
cur table: 1038
epoch: 1000
next table: 1037
cur table: 1036
epoch: 1000
next table: 1034
cur table: 1037
epoch: 1000
next table: 1038
cur table: 1034
epoch: 1000
next table: 1036
cur table: 1038
epoch: 1000
next table: 1036
cur table: 1036
epoch: 1000
next table: 1038
cur table: 1036
epoch: 1000
next table: 1028
cur table: 1038
epoch: 1000
next table: 1038
cur table: 1028
epoch: 1000
next table: 1034
cur table: 1038
epoch: 1000
next table: 1038
cur table: 1034
epoch: 1000
next table: 1034
cur table: 1038
epoch: 1000
next table: 1036
cur table: 1034
epoch: 1000
next table: 1034
cur table: 1036
epoch: 1000
next table: 1034
cur table: 1034
epoch: 1000
next table: 1036
cur table: 1034
epoch: 1000
next table: 1028
cur table: 1036
epoch: 1000
next table: 1038
cur table: 1028
epoch: 1000
next table: 1040
cur table: 1038
epoch: 1000
next table: 1038
cur table: 1040
epoch: 1000
next table: 1034
cur table: 1038
epoch: 1000
next table: 1037
cur table: 1034
epoch: 1000
next table: 1036
cur table: 1037
epoch: 1000
next table: 1038
cur table: 1036
epoch: 1000
next table: 1035
cur table: 1038
epoch: 1000
next table: 1037
cur table: 1035
epoch: 1000
next table: 1029
cur table: 1037
epoch: 1000
next table: 1038
cur table: 1029
epoch: 1000
next table: 1036
cur table: 1038
epoch: 1000
next table: 1038
cur table: 1036
epoch: 1000
next table: 1034
cur table: 1038
epoch: 1000
next table: 1034
cur table: 1034
Heartbeat CPU 0 instructions: 20000003 cycles: 5432804 heartbeat IPC: 3.68135 cumulative IPC: 3.68134 (Simulation time: 0 hr 6 min 11 sec) 
epoch: 1000
next table: 1034
cur table: 1034
epoch: 1000
next table: 1036
cur table: 1034
epoch: 1000
next table: 1032
cur table: 1036
epoch: 1000
next table: 1038
cur table: 1032
epoch: 1000
next table: 1028
cur table: 1038
epoch: 1000
next table: 1036
cur table: 1028
epoch: 1000
next table: 1036
cur table: 1036
epoch: 1000
next table: 1038
cur table: 1036
epoch: 1000
next table: 1036
cur table: 1038
epoch: 1000
next table: 1038
cur table: 1036
epoch: 1000
next table: 1036
cur table: 1038
epoch: 1000
next table: 1036
cur table: 1036
epoch: 1000
next table: 1034
cur table: 1036
epoch: 1000
next table: 1035
cur table: 1034
epoch: 1000
next table: 1031
cur table: 1035
epoch: 1000
next table: 1038
cur table: 1031
epoch: 1000
next table: 1036
cur table: 1038
epoch: 1000
next table: 1037
cur table: 1036
epoch: 1000
next table: 1038
cur table: 1037
epoch: 1000
next table: 1039
cur table: 1038
epoch: 1000
next table: 1036
cur table: 1039
epoch: 1000
next table: 1040
cur table: 1036
epoch: 1000
next table: 1038
cur table: 1040
epoch: 1000
next table: 1028
cur table: 1038
epoch: 1000
next table: 1037
cur table: 1028
epoch: 1000
next table: 1038
cur table: 1037
epoch: 1000
next table: 1038
cur table: 1038
epoch: 1000
next table: 1037
cur table: 1038
epoch: 1000
next table: 1038
cur table: 1037
epoch: 1000
next table: 1036
cur table: 1038
epoch: 1000
next table: 1039
cur table: 1036
epoch: 1000
next table: 1034
cur table: 1039
epoch: 1000
next table: 1038
cur table: 1034
epoch: 1000
next table: 1028
cur table: 1038
epoch: 1000
next table: 1036
cur table: 1028
epoch: 1000
next table: 1036
cur table: 1036
epoch: 1000
next table: 1036
cur table: 1036
epoch: 1000
next table: 1034
cur table: 1036
epoch: 1000
next table: 1040
cur table: 1034
epoch: 1000
next table: 1036
cur table: 1040
epoch: 1000
next table: 1034
cur table: 1036
epoch: 1000
next table: 1036
cur table: 1034
epoch: 1000
next table: 1038
cur table: 1036
epoch: 1000
next table: 1028
cur table: 1038
epoch: 1000
next table: 1038
cur table: 1028
epoch: 1000
next table: 1036
cur table: 1038
epoch: 1000
next table: 1038
cur table: 1036
epoch: 1000
next table: 1036
cur table: 1038
epoch: 1000
next table: 1038
cur table: 1036
epoch: 1000
next table: 1036
cur table: 1038
epoch: 1000
next table: 1036
cur table: 1036
epoch: 1000
next table: 1038
cur table: 1036
epoch: 1000
next table: 1038
cur table: 1038
epoch: 1000
next table: 1028
cur table: 1038
epoch: 1000
next table: 1036
cur table: 1028
epoch: 1000
next table: 1036
cur table: 1036
epoch: 1000
next table: 1037
cur table: 1036
epoch: 1000
next table: 1038
cur table: 1037
epoch: 1000
next table: 1038
cur table: 1038
epoch: 1000
next table: 1034
cur table: 1038
epoch: 1000
next table: 1036
cur table: 1034
epoch: 1000
next table: 1036
cur table: 1036
epoch: 1000
next table: 1030
cur table: 1036
epoch: 1000
next table: 1036
cur table: 1030
epoch: 1000
next table: 1036
cur table: 1036
epoch: 1000
next table: 1038
cur table: 1036
epoch: 1000
next table: 1037
cur table: 1038
epoch: 1000
next table: 1038
cur table: 1037
epoch: 1000
next table: 1038
cur table: 1038
epoch: 1000
next table: 1038
cur table: 1038
epoch: 1000
next table: 1036
cur table: 1038
epoch: 1000
next table: 1034
cur table: 1036
epoch: 1000
next table: 1030
cur table: 1034
epoch: 1000
next table: 1034
cur table: 1030
epoch: 1000
next table: 1038
cur table: 1034
epoch: 1000
next table: 1034
cur table: 1038
epoch: 1000
next table: 1038
cur table: 1034
epoch: 1000
next table: 1036
cur table: 1038
epoch: 1000
next table: 1038
cur table: 1036
epoch: 1000
next table: 1036
cur table: 1038
epoch: 1000
next table: 1036
cur table: 1036
epoch: 1000
next table: 1036
cur table: 1036
epoch: 1000
next table: 1030
cur table: 1036
epoch: 1000
next table: 1036
cur table: 1030
epoch: 1000
next table: 1036
cur table: 1036
epoch: 1000
next table: 1036
cur table: 1036
epoch: 1000
next table: 1038
cur table: 1036
epoch: 1000
next table: 1038
cur table: 1038
epoch: 1000
next table: 1038
cur table: 1038
epoch: 1000
next table: 1035
cur table: 1038
epoch: 1000
next table: 1037
cur table: 1035
epoch: 1000
next table: 1036
cur table: 1037
epoch: 1000
next table: 1034
cur table: 1036
epoch: 1000
next table: 1035
cur table: 1034
epoch: 1000
next table: 1038
cur table: 1035
epoch: 1000
next table: 1038
cur table: 1038
epoch: 1000
next table: 1038
cur table: 1038
epoch: 1000
next table: 1038
cur table: 1038
epoch: 1000
next table: 1034
cur table: 1038
epoch: 1000
next table: 1036
cur table: 1034
epoch: 1000
next table: 1034
cur table: 1036
epoch: 1000
next table: 1034
cur table: 1034
epoch: 1000
next table: 1028
cur table: 1034
epoch: 1000
next table: 1037
cur table: 1028
epoch: 1000
next table: 1034
cur table: 1037
epoch: 1000
next table: 1038
cur table: 1034
epoch: 1000
next table: 1034
cur table: 1038
epoch: 1000
next table: 1038
cur table: 1034
epoch: 1000
next table: 1040
cur table: 1038
epoch: 1000
next table: 1038
cur table: 1040
epoch: 1000
next table: 1038
cur table: 1038
epoch: 1000
next table: 1034
cur table: 1038
epoch: 1000
next table: 1034
cur table: 1034
epoch: 1000
next table: 1038
cur table: 1034
epoch: 1000
next table: 1036
cur table: 1038
epoch: 1000
next table: 1038
cur table: 1036
epoch: 1000
next table: 1036
cur table: 1038
epoch: 1000
next table: 1039
cur table: 1036
epoch: 1000
next table: 1036
cur table: 1039
epoch: 1000
next table: 1036
cur table: 1036
epoch: 1000
next table: 1038
cur table: 1036
epoch: 1000
next table: 1028
cur table: 1038
epoch: 1000
next table: 1038
cur table: 1028
epoch: 1000
next table: 1037
cur table: 1038
epoch: 1000
next table: 1038
cur table: 1037
epoch: 1000
next table: 1038
cur table: 1038
epoch: 1000
next table: 1036
cur table: 1038
epoch: 1000
next table: 1037
cur table: 1036
epoch: 1000
next table: 1041
cur table: 1037
epoch: 1000
next table: 1035
cur table: 1041
epoch: 1000
next table: 1038
cur table: 1035
epoch: 1000
next table: 1030
cur table: 1038
epoch: 1000
next table: 1037
cur table: 1030
epoch: 1000
next table: 1036
cur table: 1037
epoch: 1000
next table: 1038
cur table: 1036
epoch: 1000
next table: 1036
cur table: 1038
epoch: 1000
next table: 1034
cur table: 1036
epoch: 1000
next table: 1036
cur table: 1034
epoch: 1000
next table: 1036
cur table: 1036
epoch: 1000
next table: 1035
cur table: 1036
epoch: 1000
next table: 1034
cur table: 1035
epoch: 1000
next table: 1026
cur table: 1034
epoch: 1000
next table: 1032
cur table: 1026
epoch: 1000
next table: 1035
cur table: 1032
epoch: 1000
next table: 1036
cur table: 1035
epoch: 1000
next table: 1036
cur table: 1036
epoch: 1000
next table: 1038
cur table: 1036
epoch: 1000
next table: 1036
cur table: 1038
epoch: 1000
next table: 1036
cur table: 1036
epoch: 1000
next table: 1038
cur table: 1036
epoch: 1000
next table: 1036
cur table: 1038
epoch: 1000
next table: 1030
cur table: 1036
epoch: 1000
next table: 1036
cur table: 1030
epoch: 1000
next table: 1038
cur table: 1036
epoch: 1000
next table: 1038
cur table: 1038
epoch: 1000
next table: 1036
cur table: 1038
epoch: 1000
next table: 1036
cur table: 1036
epoch: 1000
next table: 1038
cur table: 1036
epoch: 1000
next table: 1034
cur table: 1038
epoch: 1000
next table: 1037
cur table: 1034
epoch: 1000
next table: 1034
cur table: 1037
epoch: 1000
next table: 1032
cur table: 1034
epoch: 1000
next table: 1035
cur table: 1032
epoch: 1000
next table: 1038
cur table: 1035
epoch: 1000
next table: 1038
cur table: 1038
epoch: 1000
next table: 1034
cur table: 1038
epoch: 1000
next table: 1036
cur table: 1034
epoch: 1000
next table: 1033
cur table: 1036
epoch: 1000
next table: 1037
cur table: 1033
epoch: 1000
next table: 1035
cur table: 1037
epoch: 1000
next table: 1026
cur table: 1035
epoch: 1000
next table: 1034
cur table: 1026
epoch: 1000
next table: 1034
cur table: 1034
epoch: 1000
next table: 1034
cur table: 1034
epoch: 1000
next table: 1034
cur table: 1034
epoch: 1000
next table: 1034
cur table: 1034
epoch: 1000
next table: 1034
cur table: 1034
epoch: 1000
next table: 1036
cur table: 1034
epoch: 1000
next table: 1034
cur table: 1036
epoch: 1000
next table: 1036
cur table: 1034
epoch: 1000
next table: 1029
cur table: 1036
epoch: 1000
next table: 1038
cur table: 1029
epoch: 1000
next table: 1038
cur table: 1038
epoch: 1000
next table: 1036
cur table: 1038
epoch: 1000
next table: 1038
cur table: 1036
epoch: 1000
next table: 1037
cur table: 1038
epoch: 1000
next table: 1038
cur table: 1037
epoch: 1000
next table: 1036
cur table: 1038
epoch: 1000
next table: 1038
cur table: 1036
epoch: 1000
next table: 1034
cur table: 1038
epoch: 1000
next table: 1030
cur table: 1034
epoch: 1000
next table: 1034
cur table: 1030
epoch: 1000
next table: 1038
cur table: 1034
epoch: 1000
next table: 1034
cur table: 1038
epoch: 1000
next table: 1038
cur table: 1034
epoch: 1000
next table: 1036
cur table: 1038
epoch: 1000
next table: 1038
cur table: 1036
epoch: 1000
next table: 1034
cur table: 1038
epoch: 1000
next table: 1037
cur table: 1034
epoch: 1000
next table: 1036
cur table: 1037
epoch: 1000
next table: 1034
cur table: 1036
epoch: 1000
next table: 1034
cur table: 1034
epoch: 1000
next table: 1038
cur table: 1034
epoch: 1000
next table: 1036
cur table: 1038
epoch: 1000
next table: 1038
cur table: 1036
epoch: 1000
next table: 1038
cur table: 1038
epoch: 1000
next table: 1036
cur table: 1038
epoch: 1000
next table: 1036
cur table: 1036
epoch: 1000
next table: 1036
cur table: 1036
epoch: 1000
next table: 1029
cur table: 1036
epoch: 1000
next table: 1036
cur table: 1029
epoch: 1000
next table: 1038
cur table: 1036
epoch: 1000
next table: 1040
cur table: 1038
epoch: 1000
next table: 1036
cur table: 1040
epoch: 1000
next table: 1038
cur table: 1036
epoch: 1000
next table: 1038
cur table: 1038
epoch: 1000
next table: 1036
cur table: 1038
epoch: 1000
next table: 1036
cur table: 1036
epoch: 1000
next table: 1036
cur table: 1036
epoch: 1000
next table: 1030
cur table: 1036
epoch: 1000
next table: 1034
cur table: 1030
epoch: 1000
next table: 1038
cur table: 1034
epoch: 1000
next table: 1036
cur table: 1038
epoch: 1000
next table: 1038
cur table: 1036
epoch: 1000
next table: 1036
cur table: 1038
epoch: 1000
next table: 1036
cur table: 1036
epoch: 1000
next table: 1034
cur table: 1036
epoch: 1000
next table: 1038
cur table: 1034
epoch: 1000
next table: 1036
cur table: 1038
epoch: 1000
next table: 1030
cur table: 1036
epoch: 1000
next table: 1038
cur table: 1030
epoch: 1000
next table: 1036
cur table: 1038
epoch: 1000
next table: 1038
cur table: 1036
epoch: 1000
next table: 1034
cur table: 1038
epoch: 1000
next table: 1042
cur table: 1034
epoch: 1000
next table: 1036
cur table: 1042
epoch: 1000
next table: 1034
cur table: 1036
epoch: 1000
next table: 1038
cur table: 1034
epoch: 1000
next table: 1034
cur table: 1038
epoch: 1000
next table: 1032
cur table: 1034
epoch: 1000
next table: 1036
cur table: 1032
epoch: 1000
next table: 1038
cur table: 1036
epoch: 1000
next table: 1034
cur table: 1038
epoch: 1000
next table: 1036
cur table: 1034
epoch: 1000
next table: 1034
cur table: 1036
epoch: 1000
next table: 1039
cur table: 1034
epoch: 1000
next table: 1033
cur table: 1039
epoch: 1000
next table: 1038
cur table: 1033
epoch: 1000
next table: 1026
cur table: 1038
epoch: 1000
next table: 1038
cur table: 1026
epoch: 1000
next table: 1034
cur table: 1038
epoch: 1000
next table: 1037
cur table: 1034
epoch: 1000
next table: 1038
cur table: 1037
epoch: 1000
next table: 1038
cur table: 1038
epoch: 1000
next table: 1038
cur table: 1038
epoch: 1000
next table: 1038
cur table: 1038
epoch: 1000
next table: 1036
cur table: 1038
epoch: 1000
next table: 1038
cur table: 1036
epoch: 1000
next table: 1028
cur table: 1038
epoch: 1000
next table: 1038
cur table: 1028
epoch: 1000
next table: 1036
cur table: 1038
epoch: 1000
next table: 1036
cur table: 1036
epoch: 1000
next table: 1034
cur table: 1036
epoch: 1000
next table: 1036
cur table: 1034
epoch: 1000
next table: 1032
cur table: 1036
epoch: 1000
next table: 1036
cur table: 1032
epoch: 1000
next table: 1034
cur table: 1036
epoch: 1000
next table: 1038
cur table: 1034
epoch: 1000
next table: 1026
cur table: 1038
epoch: 1000
next table: 1038
cur table: 1026
epoch: 1000
next table: 1040
cur table: 1038
epoch: 1000
next table: 1038
cur table: 1040
Heartbeat CPU 0 instructions: 30000002 cycles: 8149193 heartbeat IPC: 3.68136 cumulative IPC: 3.68135 (Simulation time: 0 hr 9 min 3 sec) 
epoch: 1000
next table: 1034
cur table: 1038
epoch: 1000
next table: 1038
cur table: 1034
epoch: 1000
next table: 1035
cur table: 1038
epoch: 1000
next table: 1036
cur table: 1035
epoch: 1000
next table: 1036
cur table: 1036
epoch: 1000
next table: 1037
cur table: 1036
epoch: 1000
next table: 1026
cur table: 1037
epoch: 1000
next table: 1036
cur table: 1026
epoch: 1000
next table: 1036
cur table: 1036
epoch: 1000
next table: 1037
cur table: 1036
epoch: 1000
next table: 1036
cur table: 1037
epoch: 1000
next table: 1038
cur table: 1036
epoch: 1000
next table: 1036
cur table: 1038
epoch: 1000
next table: 1036
cur table: 1036
epoch: 1000
next table: 1034
cur table: 1036
epoch: 1000
next table: 1034
cur table: 1034
epoch: 1000
next table: 1030
cur table: 1034
epoch: 1000
next table: 1034
cur table: 1030
epoch: 1000
next table: 1035
cur table: 1034
epoch: 1000
next table: 1038
cur table: 1035
epoch: 1000
next table: 1036
cur table: 1038
epoch: 1000
next table: 1038
cur table: 1036
epoch: 1000
next table: 1038
cur table: 1038
epoch: 1000
next table: 1034
cur table: 1038
epoch: 1000
next table: 1038
cur table: 1034
epoch: 1000
next table: 1026
cur table: 1038
epoch: 1000
next table: 1038
cur table: 1026
epoch: 1000
next table: 1034
cur table: 1038
epoch: 1000
next table: 1036
cur table: 1034
epoch: 1000
next table: 1035
cur table: 1036
epoch: 1000
next table: 1038
cur table: 1035
epoch: 1000
next table: 1034
cur table: 1038
epoch: 1000
next table: 1038
cur table: 1034
epoch: 1000
next table: 1040
cur table: 1038
epoch: 1000
next table: 1038
cur table: 1040
epoch: 1000
next table: 1026
cur table: 1038
epoch: 1000
next table: 1038
cur table: 1026
epoch: 1000
next table: 1034
cur table: 1038
epoch: 1000
next table: 1036
cur table: 1034
epoch: 1000
next table: 1036
cur table: 1036
epoch: 1000
next table: 1038
cur table: 1036
epoch: 1000
next table: 1036
cur table: 1038
epoch: 1000
next table: 1036
cur table: 1036
epoch: 1000
next table: 1038
cur table: 1036
epoch: 1000
next table: 1040
cur table: 1038
epoch: 1000
next table: 1030
cur table: 1040
epoch: 1000
next table: 1038
cur table: 1030
epoch: 1000
next table: 1038
cur table: 1038
epoch: 1000
next table: 1038
cur table: 1038
epoch: 1000
next table: 1038
cur table: 1038
epoch: 1000
next table: 1038
cur table: 1038
epoch: 1000
next table: 1038
cur table: 1038
epoch: 1000
next table: 1036
cur table: 1038
epoch: 1000
next table: 1039
cur table: 1036
epoch: 1000
next table: 1038
cur table: 1039
epoch: 1000
next table: 1030
cur table: 1038
epoch: 1000
next table: 1037
cur table: 1030
epoch: 1000
next table: 1036
cur table: 1037
epoch: 1000
next table: 1038
cur table: 1036
epoch: 1000
next table: 1036
cur table: 1038
epoch: 1000
next table: 1036
cur table: 1036
epoch: 1000
next table: 1034
cur table: 1036
epoch: 1000
next table: 1036
cur table: 1034
epoch: 1000
next table: 1035
cur table: 1036
epoch: 1000
next table: 1037
cur table: 1035
epoch: 1000
next table: 1029
cur table: 1037
epoch: 1000
next table: 1038
cur table: 1029
epoch: 1000
next table: 1034
cur table: 1038
epoch: 1000
next table: 1042
cur table: 1034
epoch: 1000
next table: 1035
cur table: 1042
epoch: 1000
next table: 1038
cur table: 1035
epoch: 1000
next table: 1036
cur table: 1038
epoch: 1000
next table: 1036
cur table: 1036
epoch: 1000
next table: 1036
cur table: 1036
epoch: 1000
next table: 1030
cur table: 1036
epoch: 1000
next table: 1034
cur table: 1030
epoch: 1000
next table: 1038
cur table: 1034
epoch: 1000
next table: 1034
cur table: 1038
epoch: 1000
next table: 1040
cur table: 1034
epoch: 1000
next table: 1035
cur table: 1040
epoch: 1000
next table: 1038
cur table: 1035
epoch: 1000
next table: 1036
cur table: 1038
epoch: 1000
next table: 1036
cur table: 1036
epoch: 1000
next table: 1036
cur table: 1036
epoch: 1000
next table: 1028
cur table: 1036
epoch: 1000
next table: 1036
cur table: 1028
epoch: 1000
next table: 1038
cur table: 1036
epoch: 1000
next table: 1038
cur table: 1038
epoch: 1000
next table: 1036
cur table: 1038
epoch: 1000
next table: 1038
cur table: 1036
epoch: 1000
next table: 1034
cur table: 1038
epoch: 1000
next table: 1036
cur table: 1034
epoch: 1000
next table: 1036
cur table: 1036
epoch: 1000
next table: 1038
cur table: 1036
epoch: 1000
next table: 1026
cur table: 1038
epoch: 1000
next table: 1038
cur table: 1026
epoch: 1000
next table: 1032
cur table: 1038
epoch: 1000
next table: 1038
cur table: 1032
epoch: 1000
next table: 1032
cur table: 1038
epoch: 1000
next table: 1038
cur table: 1032
epoch: 1000
next table: 1034
cur table: 1038
epoch: 1000
next table: 1036
cur table: 1034
epoch: 1000
next table: 1036
cur table: 1036
epoch: 1000
next table: 1038
cur table: 1036
epoch: 1000
next table: 1030
cur table: 1038
epoch: 1000
next table: 1036
cur table: 1030
epoch: 1000
next table: 1036
cur table: 1036
epoch: 1000
next table: 1036
cur table: 1036
epoch: 1000
next table: 1036
cur table: 1036
epoch: 1000
next table: 1038
cur table: 1036
epoch: 1000
next table: 1036
cur table: 1038
epoch: 1000
next table: 1038
cur table: 1036
epoch: 1000
next table: 1038
cur table: 1038
epoch: 1000
next table: 1032
cur table: 1038
epoch: 1000
next table: 1034
cur table: 1032
epoch: 1000
next table: 1037
cur table: 1034
epoch: 1000
next table: 1036
cur table: 1037
epoch: 1000
next table: 1038
cur table: 1036
epoch: 1000
next table: 1036
cur table: 1038
epoch: 1000
next table: 1038
cur table: 1036
epoch: 1000
next table: 1034
cur table: 1038
epoch: 1000
next table: 1035
cur table: 1034
epoch: 1000
next table: 1038
cur table: 1035
epoch: 1000
next table: 1028
cur table: 1038
epoch: 1000
next table: 1038
cur table: 1028
epoch: 1000
next table: 1036
cur table: 1038
epoch: 1000
next table: 1036
cur table: 1036
epoch: 1000
next table: 1038
cur table: 1036
epoch: 1000
next table: 1038
cur table: 1038
epoch: 1000
next table: 1038
cur table: 1038
epoch: 1000
next table: 1037
cur table: 1038
epoch: 1000
next table: 1038
cur table: 1037
epoch: 1000
next table: 1038
cur table: 1038
epoch: 1000
next table: 1029
cur table: 1038
epoch: 1000
next table: 1036
cur table: 1029
epoch: 1000
next table: 1038
cur table: 1036
epoch: 1000
next table: 1034
cur table: 1038
epoch: 1000
next table: 1038
cur table: 1034
epoch: 1000
next table: 1034
cur table: 1038
epoch: 1000
next table: 1042
cur table: 1034
epoch: 1000
next table: 1034
cur table: 1042
epoch: 1000
next table: 1038
cur table: 1034
epoch: 1000
next table: 1036
cur table: 1038
epoch: 1000
next table: 1026
cur table: 1036
epoch: 1000
next table: 1038
cur table: 1026
epoch: 1000
next table: 1034
cur table: 1038
epoch: 1000
next table: 1038
cur table: 1034
epoch: 1000
next table: 1036
cur table: 1038
epoch: 1000
next table: 1038
cur table: 1036
epoch: 1000
next table: 1034
cur table: 1038
epoch: 1000
next table: 1038
cur table: 1034
epoch: 1000
next table: 1036
cur table: 1038
epoch: 1000
next table: 1033
cur table: 1036
epoch: 1000
next table: 1033
cur table: 1033
epoch: 1000
next table: 1036
cur table: 1033
epoch: 1000
next table: 1036
cur table: 1036
epoch: 1000
next table: 1034
cur table: 1036
epoch: 1000
next table: 1036
cur table: 1034
epoch: 1000
next table: 1036
cur table: 1036
epoch: 1000
next table: 1036
cur table: 1036
epoch: 1000
next table: 1033
cur table: 1036
epoch: 1000
next table: 1036
cur table: 1033
epoch: 1000
next table: 1030
cur table: 1036
epoch: 1000
next table: 1036
cur table: 1030
epoch: 1000
next table: 1038
cur table: 1036
epoch: 1000
next table: 1034
cur table: 1038
epoch: 1000
next table: 1038
cur table: 1034
epoch: 1000
next table: 1034
cur table: 1038
epoch: 1000
next table: 1038
cur table: 1034
epoch: 1000
next table: 1038
cur table: 1038
epoch: 1000
next table: 1036
cur table: 1038
epoch: 1000
next table: 1036
cur table: 1036
epoch: 1000
next table: 1030
cur table: 1036
epoch: 1000
next table: 1036
cur table: 1030
epoch: 1000
next table: 1038
cur table: 1036
epoch: 1000
next table: 1040
cur table: 1038
epoch: 1000
next table: 1036
cur table: 1040
epoch: 1000
next table: 1038
cur table: 1036
epoch: 1000
next table: 1034
cur table: 1038
epoch: 1000
next table: 1034
cur table: 1034
epoch: 1000
next table: 1038
cur table: 1034
epoch: 1000
next table: 1032
cur table: 1038
epoch: 1000
next table: 1032
cur table: 1032
epoch: 1000
next table: 1036
cur table: 1032
epoch: 1000
next table: 1036
cur table: 1036
epoch: 1000
next table: 1036
cur table: 1036
epoch: 1000
next table: 1038
cur table: 1036
epoch: 1000
next table: 1036
cur table: 1038
epoch: 1000
next table: 1038
cur table: 1036
epoch: 1000
next table: 1036
cur table: 1038
epoch: 1000
next table: 1038
cur table: 1036
epoch: 1000
next table: 1035
cur table: 1038
epoch: 1000
next table: 1028
cur table: 1035
epoch: 1000
next table: 1034
cur table: 1028
epoch: 1000
next table: 1038
cur table: 1034
epoch: 1000
next table: 1034
cur table: 1038
epoch: 1000
next table: 1038
cur table: 1034
epoch: 1000
next table: 1034
cur table: 1038
epoch: 1000
next table: 1037
cur table: 1034
epoch: 1000
next table: 1032
cur table: 1037
epoch: 1000
next table: 1036
cur table: 1032
epoch: 1000
next table: 1034
cur table: 1036
epoch: 1000
next table: 1030
cur table: 1034
epoch: 1000
next table: 1036
cur table: 1030
epoch: 1000
next table: 1038
cur table: 1036
epoch: 1000
next table: 1037
cur table: 1038
epoch: 1000
next table: 1038
cur table: 1037
epoch: 1000
next table: 1038
cur table: 1038
epoch: 1000
next table: 1038
cur table: 1038
epoch: 1000
next table: 1036
cur table: 1038
epoch: 1000
next table: 1042
cur table: 1036
epoch: 1000
next table: 1028
cur table: 1042
epoch: 1000
next table: 1038
cur table: 1028
epoch: 1000
next table: 1036
cur table: 1038
epoch: 1000
next table: 1038
cur table: 1036
epoch: 1000
next table: 1038
cur table: 1038
epoch: 1000
next table: 1038
cur table: 1038
epoch: 1000
next table: 1040
cur table: 1038
epoch: 1000
next table: 1038
cur table: 1040
epoch: 1000
next table: 1036
cur table: 1038
epoch: 1000
next table: 1036
cur table: 1036
epoch: 1000
next table: 1030
cur table: 1036
epoch: 1000
next table: 1038
cur table: 1030
epoch: 1000
next table: 1038
cur table: 1038
epoch: 1000
next table: 1038
cur table: 1038
epoch: 1000
next table: 1038
cur table: 1038
epoch: 1000
next table: 1036
cur table: 1038
epoch: 1000
next table: 1036
cur table: 1036
epoch: 1000
next table: 1036
cur table: 1036
epoch: 1000
next table: 1036
cur table: 1036
epoch: 1000
next table: 1036
cur table: 1036
epoch: 1000
next table: 1030
cur table: 1036
epoch: 1000
next table: 1036
cur table: 1030
epoch: 1000
next table: 1036
cur table: 1036
epoch: 1000
next table: 1035
cur table: 1036
epoch: 1000
next table: 1038
cur table: 1035
epoch: 1000
next table: 1035
cur table: 1038
epoch: 1000
next table: 1036
cur table: 1035
epoch: 1000
next table: 1036
cur table: 1036
epoch: 1000
next table: 1036
cur table: 1036
epoch: 1000
next table: 1038
cur table: 1036
epoch: 1000
next table: 1028
cur table: 1038
epoch: 1000
next table: 1038
cur table: 1028
epoch: 1000
next table: 1036
cur table: 1038
epoch: 1000
next table: 1038
cur table: 1036
epoch: 1000
next table: 1036
cur table: 1038
epoch: 1000
next table: 1040
cur table: 1036
epoch: 1000
next table: 1036
cur table: 1040
epoch: 1000
next table: 1036
cur table: 1036
epoch: 1000
next table: 1036
cur table: 1036
epoch: 1000
next table: 1037
cur table: 1036
epoch: 1000
next table: 1029
cur table: 1037
epoch: 1000
next table: 1032
cur table: 1029
epoch: 1000
next table: 1038
cur table: 1032
epoch: 1000
next table: 1034
cur table: 1038
epoch: 1000
next table: 1038
cur table: 1034
epoch: 1000
next table: 1034
cur table: 1038
epoch: 1000
next table: 1038
cur table: 1034
epoch: 1000
next table: 1035
cur table: 1038
epoch: 1000
next table: 1036
cur table: 1035
epoch: 1000
next table: 1030
cur table: 1036
epoch: 1000
next table: 1036
cur table: 1030
epoch: 1000
next table: 1038
cur table: 1036
epoch: 1000
next table: 1036
cur table: 1038
epoch: 1000
next table: 1038
cur table: 1036
epoch: 1000
next table: 1034
cur table: 1038
epoch: 1000
next table: 1038
cur table: 1034
epoch: 1000
next table: 1038
cur table: 1038
epoch: 1000
next table: 1036
cur table: 1038
epoch: 1000
next table: 1036
cur table: 1036
epoch: 1000
next table: 1028
cur table: 1036
Heartbeat CPU 0 instructions: 40000000 cycles: 10865585 heartbeat IPC: 3.68135 cumulative IPC: 3.68135 (Simulation time: 0 hr 11 min 32 sec) 
epoch: 1000
next table: 1037
cur table: 1028
epoch: 1000
next table: 1036
cur table: 1037
epoch: 1000
next table: 1038
cur table: 1036
epoch: 1000
next table: 1036
cur table: 1038
epoch: 1000
next table: 1038
cur table: 1036
epoch: 1000
next table: 1036
cur table: 1038
epoch: 1000
next table: 1038
cur table: 1036
epoch: 1000
next table: 1032
cur table: 1038
epoch: 1000
next table: 1038
cur table: 1032
epoch: 1000
next table: 1028
cur table: 1038
epoch: 1000
next table: 1042
cur table: 1028
epoch: 1000
next table: 1036
cur table: 1042
epoch: 1000
next table: 1036
cur table: 1036
epoch: 1000
next table: 1036
cur table: 1036
epoch: 1000
next table: 1038
cur table: 1036
epoch: 1000
next table: 1038
cur table: 1038
epoch: 1000
next table: 1034
cur table: 1038
epoch: 1000
next table: 1036
cur table: 1034
epoch: 1000
next table: 1036
cur table: 1036
epoch: 1000
next table: 1028
cur table: 1036
epoch: 1000
next table: 1036
cur table: 1028
epoch: 1000
next table: 1036
cur table: 1036
epoch: 1000
next table: 1036
cur table: 1036
epoch: 1000
next table: 1036
cur table: 1036
epoch: 1000
next table: 1034
cur table: 1036
epoch: 1000
next table: 1036
cur table: 1034
epoch: 1000
next table: 1032
cur table: 1036
epoch: 1000
next table: 1038
cur table: 1032
epoch: 1000
next table: 1033
cur table: 1038
epoch: 1000
next table: 1030
cur table: 1033
epoch: 1000
next table: 1036
cur table: 1030
epoch: 1000
next table: 1038
cur table: 1036
epoch: 1000
next table: 1034
cur table: 1038
epoch: 1000
next table: 1038
cur table: 1034
epoch: 1000
next table: 1034
cur table: 1038
epoch: 1000
next table: 1038
cur table: 1034
epoch: 1000
next table: 1034
cur table: 1038
epoch: 1000
next table: 1038
cur table: 1034
epoch: 1000
next table: 1029
cur table: 1038
epoch: 1000
next table: 1037
cur table: 1029
epoch: 1000
next table: 1036
cur table: 1037
epoch: 1000
next table: 1038
cur table: 1036
epoch: 1000
next table: 1036
cur table: 1038
epoch: 1000
next table: 1036
cur table: 1036
epoch: 1000
next table: 1034
cur table: 1036
epoch: 1000
next table: 1036
cur table: 1034
epoch: 1000
next table: 1038
cur table: 1036
epoch: 1000
next table: 1038
cur table: 1038
epoch: 1000
next table: 1026
cur table: 1038
epoch: 1000
next table: 1038
cur table: 1026
epoch: 1000
next table: 1035
cur table: 1038
epoch: 1000
next table: 1036
cur table: 1035
epoch: 1000
next table: 1034
cur table: 1036
epoch: 1000
next table: 1038
cur table: 1034
epoch: 1000
next table: 1036
cur table: 1038
epoch: 1000
next table: 1036
cur table: 1036
epoch: 1000
next table: 1036
cur table: 1036
epoch: 1000
next table: 1038
cur table: 1036
epoch: 1000
next table: 1028
cur table: 1038
epoch: 1000
next table: 1036
cur table: 1028
epoch: 1000
next table: 1036
cur table: 1036
epoch: 1000
next table: 1038
cur table: 1036
epoch: 1000
next table: 1038
cur table: 1038
epoch: 1000
next table: 1038
cur table: 1038
epoch: 1000
next table: 1036
cur table: 1038
epoch: 1000
next table: 1036
cur table: 1036
epoch: 1000
next table: 1036
cur table: 1036
epoch: 1000
next table: 1039
cur table: 1036
epoch: 1000
next table: 1028
cur table: 1039
epoch: 1000
next table: 1038
cur table: 1028
epoch: 1000
next table: 1036
cur table: 1038
epoch: 1000
next table: 1036
cur table: 1036
epoch: 1000
next table: 1036
cur table: 1036
epoch: 1000
next table: 1038
cur table: 1036
epoch: 1000
next table: 1036
cur table: 1038
epoch: 1000
next table: 1036
cur table: 1036
epoch: 1000
next table: 1036
cur table: 1036
epoch: 1000
next table: 1036
cur table: 1036
epoch: 1000
next table: 1030
cur table: 1036
epoch: 1000
next table: 1038
cur table: 1030
epoch: 1000
next table: 1036
cur table: 1038
epoch: 1000
next table: 1046
cur table: 1036
epoch: 1000
next table: 18194
cur table: 2577
epoch: 1000
next table: 1030
cur table: 1046
epoch: 1000
next table: 1017
cur table: 18194
epoch: 1000
next table: 1032
cur table: 1030
epoch: 1000
next table: 1018
cur table: 1017
epoch: 1000
next table: 1032
cur table: 1032
epoch: 1000
next table: 1018
cur table: 1018
epoch: 1000
next table: 1030
cur table: 1032
epoch: 1000
next table: 1016
cur table: 1018
epoch: 1000
next table: 1032
cur table: 1030
epoch: 1000
next table: 1018
cur table: 1016
epoch: 1000
next table: 1030
cur table: 1032
epoch: 1000
next table: 1017
cur table: 1018
epoch: 1000
next table: 1032
cur table: 1030
epoch: 1000
next table: 1018
cur table: 1017
epoch: 1000
next table: 1032
cur table: 1032
epoch: 1000
next table: 1020
cur table: 1018
epoch: 1000
next table: 1033
cur table: 1032
epoch: 1000
next table: 1018
cur table: 1020
epoch: 1000
next table: 1032
cur table: 1033
epoch: 1000
next table: 1018
cur table: 1018
epoch: 1000
next table: 1030
cur table: 1032
epoch: 1000
next table: 1017
cur table: 1018
epoch: 1000
next table: 1032
cur table: 1030
epoch: 1000
next table: 1018
cur table: 1017
epoch: 1000
next table: 1030
cur table: 1032
epoch: 1000
next table: 1017
cur table: 1018
epoch: 1000
next table: 1032
cur table: 1030
epoch: 1000
next table: 1018
cur table: 1017
epoch: 1000
next table: 1032
cur table: 1032
epoch: 1000
next table: 1018
cur table: 1018
epoch: 1000
next table: 1030
cur table: 1032
epoch: 1000
next table: 1017
cur table: 1018
epoch: 1000
next table: 1032
cur table: 1030
epoch: 1000
next table: 1020
cur table: 1017
epoch: 1000
next table: 1032
cur table: 1032
epoch: 1000
next table: 1017
cur table: 1020
epoch: 1000
next table: 1032
cur table: 1032
epoch: 1000
next table: 1018
cur table: 1017
epoch: 1000
next table: 1032
cur table: 1032
epoch: 1000
next table: 1018
cur table: 1018
epoch: 1000
next table: 1030
cur table: 1032
epoch: 1000
next table: 1017
cur table: 1018
epoch: 1000
next table: 1032
cur table: 1030
epoch: 1000
next table: 1018
cur table: 1017
epoch: 1000
next table: 1030
cur table: 1032
epoch: 1000
next table: 1016
cur table: 1018
epoch: 1000
next table: 1032
cur table: 1030
epoch: 1000
next table: 1018
cur table: 1016
epoch: 1000
next table: 1032
cur table: 1032
epoch: 1000
next table: 1018
cur table: 1018
epoch: 1000
next table: 1030
cur table: 1032
epoch: 1000
next table: 1019
cur table: 1018
epoch: 1000
next table: 1034
cur table: 1030
epoch: 1000
next table: 1018
cur table: 1019
epoch: 1000
next table: 1030
cur table: 1034
epoch: 1000
next table: 1017
cur table: 1018
epoch: 1000
next table: 1032
cur table: 1030
epoch: 1000
next table: 1018
cur table: 1017
epoch: 1000
next table: 1030
cur table: 1032
epoch: 1000
next table: 1018
cur table: 1018
epoch: 1000
next table: 1032
cur table: 1030
epoch: 1000
next table: 1018
cur table: 1018
epoch: 1000
next table: 1032
cur table: 1032
epoch: 1000
next table: 1018
cur table: 1018
epoch: 1000
next table: 1030
cur table: 1032
epoch: 1000
next table: 1017
cur table: 1018
epoch: 1000
next table: 1032
cur table: 1030
epoch: 1000
next table: 1018
cur table: 1017
epoch: 1000
next table: 1032
cur table: 1032
epoch: 1000
next table: 1020
cur table: 1018
epoch: 1000
next table: 1032
cur table: 1032
epoch: 1000
next table: 1017
cur table: 1020
epoch: 1000
next table: 1032
cur table: 1032
epoch: 1000
next table: 1018
cur table: 1017
epoch: 1000
next table: 1030
cur table: 1032
epoch: 1000
next table: 1017
cur table: 1018
epoch: 1000
next table: 1032
cur table: 1030
epoch: 1000
next table: 1018
cur table: 1017
epoch: 1000
next table: 1030
cur table: 1032
epoch: 1000
next table: 1017
cur table: 1018
epoch: 1000
next table: 1032
cur table: 1030
epoch: 1000
next table: 1018
cur table: 1017
epoch: 1000
next table: 1032
cur table: 1032
epoch: 1000
next table: 1018
cur table: 1018
epoch: 1000
next table: 1030
cur table: 1032
epoch: 1000
next table: 1016
cur table: 1018
epoch: 1000
next table: 1034
cur table: 1030
epoch: 1000
next table: 1020
cur table: 1016
epoch: 1000
next table: 1030
cur table: 1034
epoch: 1000
next table: 1017
cur table: 1020
epoch: 1000
next table: 1032
cur table: 1030
epoch: 1000
next table: 1018
cur table: 1017
epoch: 1000
next table: 1030
cur table: 1032
epoch: 1000
next table: 1018
cur table: 1018
epoch: 1000
next table: 1032
cur table: 1030
epoch: 1000
next table: 1017
cur table: 1018
epoch: 1000
next table: 1032
cur table: 1032
epoch: 1000
next table: 1018
cur table: 1017
epoch: 1000
next table: 1030
cur table: 1032
epoch: 1000
next table: 1017
cur table: 1018
epoch: 1000
next table: 1032
cur table: 1030
epoch: 1000
next table: 1018
cur table: 1017
epoch: 1000
next table: 1030
cur table: 1032
epoch: 1000
next table: 1018
cur table: 1018
epoch: 1000
next table: 1034
cur table: 1030
epoch: 1000
next table: 1019
cur table: 1018
epoch: 1000
next table: 1032
cur table: 1034
epoch: 1000
next table: 1018
cur table: 1019
epoch: 1000
next table: 1030
cur table: 1032
epoch: 1000
next table: 1017
cur table: 1018
epoch: 1000
next table: 1032
cur table: 1030
epoch: 1000
next table: 1018
cur table: 1017
epoch: 1000
next table: 1030
cur table: 1032
epoch: 1000
next table: 1018
cur table: 1018
epoch: 1000
next table: 1032
cur table: 1030
epoch: 1000
next table: 1017
cur table: 1018
epoch: 1000
next table: 1032
cur table: 1032
epoch: 1000
next table: 1018
cur table: 1017
epoch: 1000
next table: 1030
cur table: 1032
epoch: 1000
next table: 1017
cur table: 1018
epoch: 1000
next table: 1032
cur table: 1030
epoch: 1000
next table: 1018
cur table: 1017
epoch: 1000
next table: 1032
cur table: 1032
epoch: 1000
next table: 1020
cur table: 1018
epoch: 1000
next table: 1032
cur table: 1032
epoch: 1000
next table: 1016
cur table: 1020
epoch: 1000
next table: 1032
cur table: 1032
epoch: 1000
next table: 1019
cur table: 1016
epoch: 1000
next table: 1030
cur table: 1032
epoch: 1000
next table: 1017
cur table: 1019
epoch: 1000
next table: 1032
cur table: 1030
epoch: 1000
next table: 1018
cur table: 1017
epoch: 1000
next table: 1030
cur table: 1032
epoch: 1000
next table: 1018
cur table: 1018
epoch: 1000
next table: 1032
cur table: 1030
epoch: 1000
next table: 1017
cur table: 1018
epoch: 1000
next table: 1030
cur table: 1032
epoch: 1000
next table: 1018
cur table: 1017
epoch: 1000
next table: 1032
cur table: 1030
epoch: 1000
next table: 1019
cur table: 1018
epoch: 1000
next table: 1034
cur table: 1032
epoch: 1000
next table: 1018
cur table: 1019
epoch: 1000
next table: 1030
cur table: 1034
epoch: 1000
next table: 1018
cur table: 1018
epoch: 1000
next table: 1032
cur table: 1030
epoch: 1000
next table: 1017
cur table: 1018
epoch: 1000
next table: 1030
cur table: 1032
epoch: 1000
next table: 1018
cur table: 1017
epoch: 1000
next table: 1032
cur table: 1030
epoch: 1000
next table: 1017
cur table: 1018
epoch: 1000
next table: 1032
cur table: 1032
epoch: 1000
next table: 1018
cur table: 1017
epoch: 1000
next table: 1030
cur table: 1032
epoch: 1000
next table: 1017
cur table: 1018
epoch: 1000
next table: 1032
cur table: 1030
epoch: 1000
next table: 1018
cur table: 1017
epoch: 1000
next table: 1030
cur table: 1032
epoch: 1000
next table: 1020
cur table: 1018
epoch: 1000
next table: 1034
cur table: 1030
epoch: 1000
next table: 1017
cur table: 1020
epoch: 1000
next table: 1032
cur table: 1034
epoch: 1000
next table: 1018
cur table: 1017
epoch: 1000
next table: 1030
cur table: 1032
epoch: 1000
next table: 1016
cur table: 1018
epoch: 1000
next table: 1032
cur table: 1030
epoch: 1000
next table: 1018
cur table: 1016
epoch: 1000
next table: 1030
cur table: 1032
epoch: 1000
next table: 1032
cur table: 1030
epoch: 1000
next table: 1032
cur table: 1032
epoch: 1000
next table: 1030
cur table: 1032
epoch: 1000
next table: 1032
cur table: 1030
epoch: 1000
next table: 1032
cur table: 1032
epoch: 1000
next table: 1032
cur table: 1032
epoch: 1000
next table: 1030
cur table: 1032
epoch: 1000
next table: 1032
cur table: 1030
epoch: 1000
next table: 1032
cur table: 1032
epoch: 1000
next table: 1030
cur table: 1032
epoch: 1000
next table: 1032
cur table: 1030
epoch: 1000
next table: 1030
cur table: 1032
epoch: 1000
next table: 1034
cur table: 1030
epoch: 1000
next table: 1032
cur table: 1034
epoch: 1000
next table: 1030
cur table: 1032
epoch: 1000
next table: 1032
cur table: 1030
epoch: 1000
next table: 1030
cur table: 1032
epoch: 1000
next table: 1032
cur table: 1030
epoch: 1000
next table: 1032
cur table: 1032
epoch: 1000
next table: 1030
cur table: 1032
epoch: 1000
next table: 1032
cur table: 1030
epoch: 1000
next table: 1032
cur table: 1032
epoch: 1000
next table: 1032
cur table: 1032
epoch: 1000
next table: 1032
cur table: 1032
epoch: 1000
next table: 1030
cur table: 1032
Heartbeat CPU 0 instructions: 50000002 cycles: 13782522 heartbeat IPC: 3.42825 cumulative IPC: 3.62778 (Simulation time: 0 hr 13 min 32 sec) 

Warmup complete CPU 0 instructions: 50000002 cycles: 13782522 (Simulation time: 0 hr 13 min 32 sec) 

epoch: 1000
next table: 1033
cur table: 1036
epoch: 1000
next table: 1034
cur table: 1033
epoch: 1000
next table: 1034
cur table: 1034
epoch: 1000
next table: 1034
cur table: 1034
epoch: 1000
next table: 1037
cur table: 1034
epoch: 1000
next table: 1032
cur table: 1037
epoch: 1000
next table: 1035
cur table: 1032
epoch: 1000
next table: 1034
cur table: 1035
epoch: 1000
next table: 1035
cur table: 1034
epoch: 1000
next table: 1034
cur table: 1035
epoch: 1000
next table: 1034
cur table: 1034
epoch: 1000
next table: 1033
cur table: 1034
epoch: 1000
next table: 1033
cur table: 1033
epoch: 1000
next table: 1036
cur table: 1033
epoch: 1000
next table: 1035
cur table: 1036
epoch: 1000
next table: 1033
cur table: 1035
epoch: 1000
next table: 1033
cur table: 1033
epoch: 1000
next table: 1031
cur table: 1033
epoch: 1000
next table: 1035
cur table: 1031
epoch: 1000
next table: 1032
cur table: 1035
epoch: 1000
next table: 1034
cur table: 1032
epoch: 1000
next table: 1035
cur table: 1034
epoch: 1000
next table: 1034
cur table: 1035
epoch: 1000
next table: 1034
cur table: 1034
epoch: 1000
next table: 1031
cur table: 1034
epoch: 1000
next table: 1034
cur table: 1031
epoch: 1000
next table: 1036
cur table: 1034
epoch: 1000
next table: 1032
cur table: 1036
epoch: 1000
next table: 1034
cur table: 1032
epoch: 1000
next table: 1033
cur table: 1034
epoch: 1000
next table: 1036
cur table: 1033
epoch: 1000
next table: 1034
cur table: 1036
epoch: 1000
next table: 1033
cur table: 1034
epoch: 1000
next table: 1034
cur table: 1033
epoch: 1000
next table: 1032
cur table: 1034
epoch: 1000
next table: 1036
cur table: 1032
epoch: 1000
next table: 1034
cur table: 1036
epoch: 1000
next table: 1032
cur table: 1034
epoch: 1000
next table: 1036
cur table: 1032
epoch: 1000
next table: 1034
cur table: 1036
epoch: 1000
next table: 1035
cur table: 1034
epoch: 1000
next table: 1034
cur table: 1035
epoch: 1000
next table: 1035
cur table: 1034
epoch: 1000
next table: 1035
cur table: 1035
epoch: 1000
next table: 1032
cur table: 1035
epoch: 1000
next table: 1034
cur table: 1032
epoch: 1000
next table: 1034
cur table: 1034
epoch: 1000
next table: 1034
cur table: 1034
epoch: 1000
next table: 1037
cur table: 1034
epoch: 1000
next table: 1034
cur table: 1037
epoch: 1000
next table: 1035
cur table: 1034
epoch: 1000
next table: 1033
cur table: 1035
epoch: 1000
next table: 1034
cur table: 1033
epoch: 1000
next table: 1035
cur table: 1034
epoch: 1000
next table: 1033
cur table: 1035
epoch: 1000
next table: 1035
cur table: 1033
epoch: 1000
next table: 1033
cur table: 1035
epoch: 1000
next table: 1037
cur table: 1033
epoch: 1000
next table: 1034
cur table: 1037
epoch: 1000
next table: 1033
cur table: 1034
epoch: 1000
next table: 1034
cur table: 1033
epoch: 1000
next table: 1032
cur table: 1034
epoch: 1000
next table: 1034
cur table: 1032
epoch: 1000
next table: 1032
cur table: 1034
epoch: 1000
next table: 1034
cur table: 1032
epoch: 1000
next table: 1035
cur table: 1034
epoch: 1000
next table: 1034
cur table: 1035
epoch: 1000
next table: 1034
cur table: 1034
epoch: 1000
next table: 1033
cur table: 1034
epoch: 1000
next table: 1034
cur table: 1033
epoch: 1000
next table: 1034
cur table: 1034
epoch: 1000
next table: 1034
cur table: 1034
epoch: 1000
next table: 1034
cur table: 1034
epoch: 1000
next table: 1031
cur table: 1034
epoch: 1000
next table: 1036
cur table: 1031
epoch: 1000
next table: 1035
cur table: 1036
epoch: 1000
next table: 1032
cur table: 1035
epoch: 1000
next table: 1036
cur table: 1032
epoch: 1000
next table: 1032
cur table: 1036
epoch: 1000
next table: 1034
cur table: 1032
epoch: 1000
next table: 1033
cur table: 1034
epoch: 1000
next table: 1033
cur table: 1033
epoch: 1000
next table: 1034
cur table: 1033
epoch: 1000
next table: 1031
cur table: 1034
epoch: 1000
next table: 1037
cur table: 1031
epoch: 1000
next table: 1033
cur table: 1037
epoch: 1000
next table: 1035
cur table: 1033
epoch: 1000
next table: 1034
cur table: 1035
epoch: 1000
next table: 1032
cur table: 1034
epoch: 1000
next table: 1035
cur table: 1032
epoch: 1000
next table: 1033
cur table: 1035
epoch: 1000
next table: 1035
cur table: 1033
epoch: 1000
next table: 1037
cur table: 1035
epoch: 1000
next table: 1033
cur table: 1037
epoch: 1000
next table: 1036
cur table: 1033
epoch: 1000
next table: 1033
cur table: 1036
epoch: 1000
next table: 1034
cur table: 1033
epoch: 1000
next table: 1036
cur table: 1034
epoch: 1000
next table: 1032
cur table: 1036
epoch: 1000
next table: 1035
cur table: 1032
epoch: 1000
next table: 1034
cur table: 1035
epoch: 1000
next table: 1037
cur table: 1034
epoch: 1000
next table: 1032
cur table: 1037
epoch: 1000
next table: 1035
cur table: 1032
epoch: 1000
next table: 1034
cur table: 1035
epoch: 1000
next table: 1034
cur table: 1034
epoch: 1000
next table: 1034
cur table: 1034
epoch: 1000
next table: 1033
cur table: 1034
epoch: 1000
next table: 1034
cur table: 1033
epoch: 1000
next table: 1033
cur table: 1034
epoch: 1000
next table: 1036
cur table: 1033
epoch: 1000
next table: 1033
cur table: 1036
epoch: 1000
next table: 1031
cur table: 1033
epoch: 1000
next table: 1036
cur table: 1031
epoch: 1000
next table: 1034
cur table: 1036
epoch: 1000
next table: 1032
cur table: 1034
epoch: 1000
next table: 1035
cur table: 1032
epoch: 1000
next table: 1032
cur table: 1035
epoch: 1000
next table: 1034
cur table: 1032
epoch: 1000
next table: 1035
cur table: 1034
epoch: 1000
next table: 1034
cur table: 1035
epoch: 1000
next table: 1034
cur table: 1034
epoch: 1000
next table: 1032
cur table: 1034
epoch: 1000
next table: 1034
cur table: 1032
epoch: 1000
next table: 1033
cur table: 1034
epoch: 1000
next table: 1034
cur table: 1033
epoch: 1000
next table: 1034
cur table: 1034
epoch: 1000
next table: 1033
cur table: 1034
epoch: 1000
next table: 1036
cur table: 1033
epoch: 1000
next table: 1032
cur table: 1036
epoch: 1000
next table: 1035
cur table: 1032
epoch: 1000
next table: 1034
cur table: 1035
epoch: 1000
next table: 1032
cur table: 1034
epoch: 1000
next table: 1036
cur table: 1032
epoch: 1000
next table: 1032
cur table: 1036
epoch: 1000
next table: 1035
cur table: 1032
epoch: 1000
next table: 1036
cur table: 1035
epoch: 1000
next table: 1035
cur table: 1036
epoch: 1000
next table: 1035
cur table: 1035
epoch: 1000
next table: 1033
cur table: 1035
epoch: 1000
next table: 1035
cur table: 1033
epoch: 1000
next table: 1035
cur table: 1035
epoch: 1000
next table: 1031
cur table: 1035
epoch: 1000
next table: 1035
cur table: 1031
epoch: 1000
next table: 1034
cur table: 1035
epoch: 1000
next table: 1036
cur table: 1034
epoch: 1000
next table: 1035
cur table: 1036
epoch: 1000
next table: 1035
cur table: 1035
epoch: 1000
next table: 1035
cur table: 1035
epoch: 1000
next table: 1033
cur table: 1035
epoch: 1000
next table: 1037
cur table: 1033
epoch: 1000
next table: 1033
cur table: 1037
epoch: 1000
next table: 1035
cur table: 1033
epoch: 1000
next table: 1036
cur table: 1035
epoch: 1000
next table: 1031
cur table: 1036
Heartbeat CPU 0 instructions: 60000001 cycles: 30521658 heartbeat IPC: 0.597402 cumulative IPC: 0.597402 (Simulation time: 0 hr 16 min 2 sec) 
epoch: 1000
next table: 1036
cur table: 1031
epoch: 1000
next table: 1032
cur table: 1036
epoch: 1000
next table: 1033
cur table: 1032
epoch: 1000
next table: 1036
cur table: 1033
epoch: 1000
next table: 1032
cur table: 1036
epoch: 1000
next table: 1033
cur table: 1032
epoch: 1000
next table: 1032
cur table: 1033
epoch: 1000
next table: 1034
cur table: 1032
epoch: 1000
next table: 1035
cur table: 1034
epoch: 1000
next table: 1034
cur table: 1035
epoch: 1000
next table: 1034
cur table: 1034
epoch: 1000
next table: 1034
cur table: 1034
epoch: 1000
next table: 1034
cur table: 1034
epoch: 1000
next table: 1031
cur table: 1034
epoch: 1000
next table: 1036
cur table: 1031
epoch: 1000
next table: 1033
cur table: 1036
epoch: 1000
next table: 1032
cur table: 1033
epoch: 1000
next table: 1038
cur table: 1032
epoch: 1000
next table: 1032
cur table: 1038
epoch: 1000
next table: 1034
cur table: 1032
epoch: 1000
next table: 1035
cur table: 1034
epoch: 1000
next table: 1032
cur table: 1035
epoch: 1000
next table: 1034
cur table: 1032
epoch: 1000
next table: 1033
cur table: 1034
epoch: 1000
next table: 1034
cur table: 1033
epoch: 1000
next table: 1035
cur table: 1034
epoch: 1000
next table: 1034
cur table: 1035
epoch: 1000
next table: 1034
cur table: 1034
epoch: 1000
next table: 1034
cur table: 1034
epoch: 1000
next table: 1035
cur table: 1034
epoch: 1000
next table: 1033
cur table: 1035
epoch: 1000
next table: 1035
cur table: 1033
epoch: 1000
next table: 1035
cur table: 1035
epoch: 1000
next table: 1033
cur table: 1035
epoch: 1000
next table: 1036
cur table: 1033
epoch: 1000
next table: 1035
cur table: 1036
epoch: 1000
next table: 1034
cur table: 1035
epoch: 1000
next table: 1036
cur table: 1034
epoch: 1000
next table: 1032
cur table: 1036
epoch: 1000
next table: 1035
cur table: 1032
epoch: 1000
next table: 1034
cur table: 1035
epoch: 1000
next table: 1035
cur table: 1034
epoch: 1000
next table: 1035
cur table: 1035
epoch: 1000
next table: 1033
cur table: 1035
epoch: 1000
next table: 1037
cur table: 1033
epoch: 1000
next table: 1032
cur table: 1037
epoch: 1000
next table: 1034
cur table: 1032
epoch: 1000
next table: 1035
cur table: 1034
epoch: 1000
next table: 1034
cur table: 1035
epoch: 1000
next table: 1033
cur table: 1034
epoch: 1000
next table: 1033
cur table: 1033
epoch: 1000
next table: 1033
cur table: 1033
epoch: 1000
next table: 1032
cur table: 1033
epoch: 1000
next table: 1038
cur table: 1032
epoch: 1000
next table: 1034
cur table: 1038
epoch: 1000
next table: 1032
cur table: 1034
epoch: 1000
next table: 1035
cur table: 1032
epoch: 1000
next table: 1032
cur table: 1035
epoch: 1000
next table: 1034
cur table: 1032
epoch: 1000
next table: 1035
cur table: 1034
epoch: 1000
next table: 1032
cur table: 1035
epoch: 1000
next table: 1035
cur table: 1032
epoch: 1000
next table: 1036
cur table: 1035
epoch: 1000
next table: 1034
cur table: 1036
epoch: 1000
next table: 1033
cur table: 1034
epoch: 1000
next table: 1031
cur table: 1033
epoch: 1000
next table: 1034
cur table: 1031
epoch: 1000
next table: 1033
cur table: 1034
epoch: 1000
next table: 1034
cur table: 1033
epoch: 1000
next table: 1034
cur table: 1034
epoch: 1000
next table: 1036
cur table: 1034
epoch: 1000
next table: 1033
cur table: 1036
epoch: 1000
next table: 1031
cur table: 1033
epoch: 1000
next table: 1036
cur table: 1031
epoch: 1000
next table: 1032
cur table: 1036
epoch: 1000
next table: 1035
cur table: 1032
epoch: 1000
next table: 1036
cur table: 1035
epoch: 1000
next table: 1033
cur table: 1036
epoch: 1000
next table: 1035
cur table: 1033
epoch: 1000
next table: 1035
cur table: 1035
epoch: 1000
next table: 1035
cur table: 1035
epoch: 1000
next table: 1035
cur table: 1035
epoch: 1000
next table: 1033
cur table: 1035
epoch: 1000
next table: 1035
cur table: 1033
epoch: 1000
next table: 1032
cur table: 1035
epoch: 1000
next table: 1035
cur table: 1032
epoch: 1000
next table: 1035
cur table: 1035
epoch: 1000
next table: 1033
cur table: 1035
epoch: 1000
next table: 1037
cur table: 1033
epoch: 1000
next table: 1033
cur table: 1037
epoch: 1000
next table: 1035
cur table: 1033
epoch: 1000
next table: 1035
cur table: 1035
epoch: 1000
next table: 1033
cur table: 1035
epoch: 1000
next table: 1036
cur table: 1033
epoch: 1000
next table: 1032
cur table: 1036
epoch: 1000
next table: 1034
cur table: 1032
epoch: 1000
next table: 1034
cur table: 1034
epoch: 1000
next table: 1036
cur table: 1034
epoch: 1000
next table: 1035
cur table: 1036
epoch: 1000
next table: 1032
cur table: 1035
epoch: 1000
next table: 1033
cur table: 1032
epoch: 1000
next table: 1034
cur table: 1033
epoch: 1000
next table: 1033
cur table: 1034
epoch: 1000
next table: 1034
cur table: 1033
epoch: 1000
next table: 1032
cur table: 1034
epoch: 1000
next table: 1034
cur table: 1032
epoch: 1000
next table: 1036
cur table: 1034
epoch: 1000
next table: 1034
cur table: 1036
epoch: 1000
next table: 1033
cur table: 1034
epoch: 1000
next table: 1034
cur table: 1033
epoch: 1000
next table: 1033
cur table: 1034
epoch: 1000
next table: 1032
cur table: 1033
epoch: 1000
next table: 1036
cur table: 1032
epoch: 1000
next table: 1033
cur table: 1036
epoch: 1000
next table: 1032
cur table: 1033
epoch: 1000
next table: 1037
cur table: 1032
epoch: 1000
next table: 1032
cur table: 1037
epoch: 1000
next table: 1034
cur table: 1032
epoch: 1000
next table: 1033
cur table: 1034
epoch: 1000
next table: 1034
cur table: 1033
epoch: 1000
next table: 1034
cur table: 1034
epoch: 1000
next table: 1034
cur table: 1034
epoch: 1000
next table: 1035
cur table: 1034
epoch: 1000
next table: 1031
cur table: 1035
epoch: 1000
next table: 1037
cur table: 1031
epoch: 1000
next table: 1035
cur table: 1037
epoch: 1000
next table: 1033
cur table: 1035
epoch: 1000
next table: 1035
cur table: 1033
epoch: 1000
next table: 1033
cur table: 1035
epoch: 1000
next table: 1036
cur table: 1033
epoch: 1000
next table: 1035
cur table: 1036
epoch: 1000
next table: 1032
cur table: 1035
epoch: 1000
next table: 1038
cur table: 1032
epoch: 1000
next table: 1032
cur table: 1038
epoch: 1000
next table: 1035
cur table: 1032
epoch: 1000
next table: 1034
cur table: 1035
epoch: 1000
next table: 1035
cur table: 1034
epoch: 1000
next table: 1035
cur table: 1035
epoch: 1000
next table: 1033
cur table: 1035
epoch: 1000
next table: 1035
cur table: 1033
epoch: 1000
next table: 1033
cur table: 1035
epoch: 1000
next table: 1036
cur table: 1033
epoch: 1000
next table: 1035
cur table: 1036
epoch: 1000
next table: 1032
cur table: 1035
epoch: 1000
next table: 1035
cur table: 1032
epoch: 1000
next table: 1033
cur table: 1035
epoch: 1000
next table: 1033
cur table: 1033
epoch: 1000
next table: 1033
cur table: 1033
epoch: 1000
next table: 1034
cur table: 1033
epoch: 1000
next table: 1034
cur table: 1034
epoch: 1000
next table: 1034
cur table: 1034
epoch: 1000
next table: 1035
cur table: 1034
epoch: 1000
next table: 1034
cur table: 1035
epoch: 1000
next table: 1032
cur table: 1034
epoch: 1000
next table: 1035
cur table: 1032
epoch: 1000
next table: 1032
cur table: 1035
Heartbeat CPU 0 instructions: 70000001 cycles: 47264285 heartbeat IPC: 0.597278 cumulative IPC: 0.59734 (Simulation time: 0 hr 18 min 31 sec) 
epoch: 1000
next table: 1034
cur table: 1032
epoch: 1000
next table: 1034
[...]
epoch: 1000
next table: 1033
cur table: 1036
epoch: 1000
next table: 1035
cur table: 1033
epoch: 1000
next table: 1035
cur table: 1035
epoch: 1000
next table: 1035
cur table: 1035
epoch: 1000
next table: 1035
cur table: 1035
epoch: 1000
next table: 1034
cur table: 1035
epoch: 1000
next table: 1035
cur table: 1034
epoch: 1000
next table: 1034
cur table: 1035
epoch: 1000
next table: 1034
cur table: 1034
epoch: 1000
next table: 1034
cur table: 1034
epoch: 1000
next table: 1033
cur table: 1034
epoch: 1000
next table: 1036
cur table: 1033
epoch: 1000
next table: 1037
cur table: 1036
epoch: 1000
next table: 1033
cur table: 1037
epoch: 1000
next table: 1035
cur table: 1033
epoch: 1000
next table: 1033
cur table: 1035
epoch: 1000
next table: 1035
cur table: 1033
epoch: 1000
next table: 1035
cur table: 1035
epoch: 1000
next table: 1031
cur table: 1035
epoch: 1000
next table: 1034
cur table: 1031
epoch: 1000
next table: 1031
cur table: 1034
epoch: 1000
next table: 1037
cur table: 1031
epoch: 1000
next table: 1031
cur table: 1037
epoch: 1000
next table: 1033
cur table: 1031
epoch: 1000
next table: 1036
cur table: 1033
epoch: 1000
next table: 1032
cur table: 1036
epoch: 1000
next table: 1034
cur table: 1032
epoch: 1000
next table: 1033
cur table: 1034
epoch: 1000
next table: 1034
cur table: 1033
epoch: 1000
next table: 1036
cur table: 1034
epoch: 1000
next table: 1033
cur table: 1036
epoch: 1000
next table: 1034
cur table: 1033
epoch: 1000
next table: 1032
cur table: 1034
epoch: 1000
next table: 1036
cur table: 1032
epoch: 1000
next table: 1034
cur table: 1036
epoch: 1000
next table: 1031
cur table: 1034
epoch: 1000
next table: 1036
cur table: 1031
epoch: 1000
next table: 1030
cur table: 1036
epoch: 1000
next table: 1037
cur table: 1030
epoch: 1000
next table: 1032
cur table: 1037
epoch: 1000
next table: 1034
cur table: 1032
epoch: 1000
next table: 1036
cur table: 1034
epoch: 1000
next table: 1032
cur table: 1036
epoch: 1000
next table: 1034
cur table: 1032
epoch: 1000
next table: 1034
cur table: 1034
epoch: 1000
next table: 1034
cur table: 1034
epoch: 1000
next table: 1035
cur table: 1034
epoch: 1000
next table: 1036
cur table: 1035
epoch: 1000
next table: 1035
cur table: 1036
epoch: 1000
next table: 1033
cur table: 1035
epoch: 1000
next table: 1035
cur table: 1033
epoch: 1000
next table: 1035
cur table: 1035
epoch: 1000
next table: 1033
cur table: 1035
epoch: 1000
next table: 1035
cur table: 1033
epoch: 1000
next table: 1033
cur table: 1035
epoch: 1000
next table: 1035
cur table: 1033
epoch: 1000
next table: 1038
cur table: 1035
epoch: 1000
next table: 1031
cur table: 1038
epoch: 1000
next table: 1035
cur table: 1031
epoch: 1000
next table: 1033
cur table: 1035
epoch: 1000
next table: 1035
cur table: 1033
epoch: 1000
next table: 1035
cur table: 1035
epoch: 1000
next table: 1033
cur table: 1035
epoch: 1000
next table: 1035
cur table: 1033
epoch: 1000
next table: 1033
cur table: 1035
epoch: 1000
next table: 1037
cur table: 1033
epoch: 1000
next table: 1032
cur table: 1037
epoch: 1000
next table: 1034
cur table: 1032
epoch: 1000
next table: 1033
cur table: 1034
Heartbeat CPU 0 instructions: 100000000 cycles: 97481189 heartbeat IPC: 0.59743 cumulative IPC: 0.597381 (Simulation time: 0 hr 25 min 25 sec) 
Finished CPU 0 instructions: 50000000 cycles: 83698685 cumulative IPC: 0.597381 (Simulation time: 0 hr 25 min 25 sec) 

ChampSim completed all CPUs

Region of Interest Statistics

CPU 0 cumulative IPC: 0.597381 instructions: 50000000 cycles: 83698685
ITLB TOTAL     ACCESS:    7492615  HIT:    7492615  MISS:          0  HIT %:        100  MISS %:          0   MPKI: 0
ITLB LOAD TRANSLATION ACCESS:    7492615  HIT:    7492615  MISS:          0  HIT %:        100  MISS %:          0   MPKI: 0
ITLB PREFETCH  REQUESTED:          0  ISSUED:          0  USEFUL:          0  USELESS:          0
ITLB USEFUL LOAD PREFETCHES:          0 PREFETCH ISSUED TO LOWER LEVEL:          0  ACCURACY: -nan
ITLB TIMELY PREFETCHES:          0 LATE PREFETCHES: 0 DROPPED PREFETCHES: 0
ITLB PREFETCHES SAME FILL-ORIGIN LEVEL: 0 DIFFERENT FILL-ORIGIN LEVEL: 0
ITLB AVERAGE MISS LATENCY: -nan cycles
ITLB RQ	ACCESS:    7492880	FORWARD:          0	MERGED:        265	TO_CACHE:    7492615

Revised Interactions: positive negative neutral
ITLB_interactions 0 0 0 -nan -nan -nan
DTLB TOTAL     ACCESS:    4303716  HIT:    4291452  MISS:      12264  HIT %:     99.715  MISS %:   0.284963   MPKI: 0.24528
DTLB LOAD TRANSLATION ACCESS:    4303716  HIT:    4291452  MISS:      12264  HIT %:     99.715  MISS %:   0.284963   MPKI: 0.24528
DTLB PREFETCH  REQUESTED:          0  ISSUED:          0  USEFUL:          0  USELESS:          0
DTLB USEFUL LOAD PREFETCHES:          0 PREFETCH ISSUED TO LOWER LEVEL:          0  ACCURACY: -nan
DTLB TIMELY PREFETCHES:          0 LATE PREFETCHES: 0 DROPPED PREFETCHES: 0
DTLB PREFETCHES SAME FILL-ORIGIN LEVEL: 0 DIFFERENT FILL-ORIGIN LEVEL: 0
DTLB AVERAGE MISS LATENCY: 144.143 cycles
DTLB RQ	ACCESS:    5621317	FORWARD:          0	MERGED:    1315574	TO_CACHE:    4305743

Revised Interactions: positive negative neutral
DTLB_interactions 0 0 0 -nan -nan -nan
STLB TOTAL     ACCESS:     716415  HIT:     704239  MISS:      12176  HIT %:    98.3004  MISS %:    1.69957   MPKI: 0.24352
STLB LOAD TRANSLATION ACCESS:      12264  HIT:         88  MISS:      12176  HIT %:   0.717547  MISS %:    99.2825   MPKI: 0.24352
STLB TRANSLATION FROM L1D PREFETCHER ACCESS:     704151  HIT:     704151  MISS:          0  HIT %:        100  MISS %:          0   MPKI: 0
STLB PREFETCH  REQUESTED:          0  ISSUED:          0  USEFUL:          0  USELESS:          0
STLB USEFUL LOAD PREFETCHES:          0 PREFETCH ISSUED TO LOWER LEVEL:          0  ACCURACY: -nan
STLB TIMELY PREFETCHES:          0 LATE PREFETCHES: 0 DROPPED PREFETCHES: 0
STLB PREFETCHES SAME FILL-ORIGIN LEVEL: 0 DIFFERENT FILL-ORIGIN LEVEL: 0
STLB AVERAGE MISS LATENCY: 136.12 cycles
STLB RQ	ACCESS:     780615	FORWARD:          0	MERGED:      64200	TO_CACHE:     716415

Revised Interactions: positive negative neutral
STLB_interactions 0 0 0 -nan -nan -nan
STLB Hit, L1D data hit: 0
STLB Hit, L2C data hit: 0
STLB Hit, LLC data hit: 0
STLB Hit, LLC data miss: 0
STLB STLB hints to L2: 0
L1D TOTAL     ACCESS:    6345870  HIT:    5566443  MISS:     779427  HIT %:    87.7176  MISS %:    12.2824   MPKI: 15.5885
L1D LOAD      ACCESS:    4344643  HIT:    4330258  MISS:      14385  HIT %:    99.6689  MISS %:   0.331097   MPKI: 0.2877
L1D RFO       ACCESS:    1235302  HIT:    1235302  MISS:          0  HIT %:        100  MISS %:          0   MPKI: 0
L1D PREFETCH  ACCESS:     765925  HIT:        883  MISS:     765042  HIT %:   0.115285  MISS %:    99.8847   MPKI: 15.3008
L1D PREFETCH  REQUESTED:    1536702  ISSUED:    1536702  USEFUL:     764500  USELESS:        541
L1D USEFUL LOAD PREFETCHES:     764500 PREFETCH ISSUED TO LOWER LEVEL:     765042  ACCURACY: 99.9292
L1D TIMELY PREFETCHES:     764500 LATE PREFETCHES: 20107 DROPPED PREFETCHES: 0
L1D PREFETCHES SAME FILL-ORIGIN LEVEL: 765042 DIFFERENT FILL-ORIGIN LEVEL: 0
L1D AVERAGE MISS LATENCY: 28.6863 cycles
L1D RQ	ACCESS:    7515792	FORWARD:          0	MERGED:    3129776	TO_CACHE:    4386016
L1D WQ	ACCESS:    1246801	FORWARD:          0	MERGED:      11500	TO_CACHE:    1235301
L1D PQ	ACCESS:     768351	FORWARD:          0	MERGED:          0	TO_CACHE:     768351

Revised Interactions: positive negative neutral
L1D_interactions 0 0 0 -nan -nan -nan
L1D UNIQUE REGIONS ACCESSED: 0
L1D REGIONS CONFLICTS: 0
L1D Cross Page Prefetch Requests: 0
L1D Same Page Prefetch Requests: 2059945
L1D ROI Sum of L1D PQ occupancy: 10063905
L1D PREFETCHES PUSHED FROM L2C: 0
L1I TOTAL     ACCESS:    7492880  HIT:    7492880  MISS:          0  HIT %:        100  MISS %:          0   MPKI: 0
L1I LOAD      ACCESS:    7492880  HIT:    7492880  MISS:          0  HIT %:        100  MISS %:          0   MPKI: 0
L1I PREFETCH  REQUESTED:          0  ISSUED:          0  USEFUL:          0  USELESS:          0
L1I USEFUL LOAD PREFETCHES:          0 PREFETCH ISSUED TO LOWER LEVEL:          0  ACCURACY: -nan
L1I TIMELY PREFETCHES:          0 LATE PREFETCHES: 0 DROPPED PREFETCHES: 0
L1I PREFETCHES SAME FILL-ORIGIN LEVEL: 0 DIFFERENT FILL-ORIGIN LEVEL: 0
L1I AVERAGE MISS LATENCY: -nan cycles
L1I RQ	ACCESS:   11221857	FORWARD:          0	MERGED:    3728977	TO_CACHE:    7492880

Revised Interactions: positive negative neutral
L1I_interactions 0 0 0 -nan -nan -nan
BTB TOTAL     ACCESS:    7492438  HIT:    7492434  MISS:          4  HIT %:    99.9999  MISS %: 5.33872e-05   MPKI: 8e-05
BTB BRANCH_DIRECT_JUMP	ACCESS:          0  HIT:          0  MISS:          0
BTB BRANCH_INDIRECT	ACCESS:          0  HIT:          0  MISS:          0
BTB BRANCH_CONDITIONAL	ACCESS:    7492438  HIT:    7492434  MISS:          4
BTB BRANCH_DIRECT_CALL	ACCESS:          0  HIT:          0  MISS:          0
BTB BRANCH_INDIRECT_CALL	ACCESS:          0  HIT:          0  MISS:          0
BTB BRANCH_RETURN	ACCESS:          0  HIT:          0  MISS:          0
BTB BRANCH_OTHER ACCESS:          0  HIT:          0  MISS:          0

L2C TOTAL     ACCESS:    4395141  HIT:    3614165  MISS:     780976  HIT %:    82.2309  MISS %:    17.7691   MPKI: 15.6195
L2C LOAD      ACCESS:      14385  HIT:          0  MISS:      14385  HIT %:          0  MISS %:        100   MPKI: 0.2877
L2C DATA LOAD MPKI: 0.2877
L2C INSTRUCTION LOAD MPKI: 0
L2C PREFETCH  ACCESS:    4368580  HIT:    3603539  MISS:     765041  HIT %:    82.4877  MISS %:    17.5123   MPKI: 15.3008
L2C DATA PREFETCH MPKI: 15.3008
L2C INSTRUCTION PREFETCH MPKI: 0
L2C LOAD TRANSLATION ACCESS:      12176  HIT:      10626  MISS:       1550  HIT %:      87.27  MISS %:      12.73   MPKI: 0.031
L2C PREFETCH  REQUESTED:    3946857  ISSUED:    3946857  USEFUL:          0  USELESS:     765056
L2C USEFUL LOAD PREFETCHES:          0 PREFETCH ISSUED TO LOWER LEVEL:     765042  ACCURACY: 0
L2C TIMELY PREFETCHES:          0 LATE PREFETCHES: 0 DROPPED PREFETCHES: 0
L2C PREFETCHES SAME FILL-ORIGIN LEVEL: 681885 DIFFERENT FILL-ORIGIN LEVEL: 0
L2C AVERAGE MISS LATENCY: 101.563 cycles
L2C RQ	ACCESS:      26561	FORWARD:          0	MERGED:          0	TO_CACHE:      26561
L2C PQ	ACCESS:    4711899	FORWARD:          0	MERGED:      90100	TO_CACHE:    4621799

Revised Interactions: positive negative neutral
L2C_interactions 1477 763105 1553 0.192786 99.6045 0.202706
L2C Instructions Evicting Data 0
L2C Translations Evicting Data 1550
L2C Data Evicting Data 777871
L2C Instructions Evicting Instructions 0
L2C Translations Evicting Instructions 0
L2C Data Evicting Instructions 0
L2C Instructions Evicting Translations 0
L2C Translations Evicting Translations 0
L2C Data Evicting Translations 1555
L2C Dense regions hint from L2: 0
PSCL5 TOTAL     ACCESS:      12176  HIT:      12176  MISS:          0  HIT %:        100  MISS %:          0   MPKI: 0
PSCL5 LOAD TRANSLATION ACCESS:      12176  HIT:      12176  MISS:          0  HIT %:        100  MISS %:          0   MPKI: 0
PSCL5 PREFETCH  REQUESTED:          0  ISSUED:          0  USEFUL:          0  USELESS:          0
PSCL5 USEFUL LOAD PREFETCHES:          0 PREFETCH ISSUED TO LOWER LEVEL:          0  ACCURACY: -nan
PSCL5 TIMELY PREFETCHES:          0 LATE PREFETCHES: 0 DROPPED PREFETCHES: 0
PSCL5 PREFETCHES SAME FILL-ORIGIN LEVEL: 0 DIFFERENT FILL-ORIGIN LEVEL: 0

Revised Interactions: positive negative neutral
PSCL5_interactions 0 0 0 -nan -nan -nan
PSCL4 TOTAL     ACCESS:      12176  HIT:      12176  MISS:          0  HIT %:        100  MISS %:          0   MPKI: 0
PSCL4 LOAD TRANSLATION ACCESS:      12176  HIT:      12176  MISS:          0  HIT %:        100  MISS %:          0   MPKI: 0
PSCL4 PREFETCH  REQUESTED:          0  ISSUED:          0  USEFUL:          0  USELESS:          0
PSCL4 USEFUL LOAD PREFETCHES:          0 PREFETCH ISSUED TO LOWER LEVEL:          0  ACCURACY: -nan
PSCL4 TIMELY PREFETCHES:          0 LATE PREFETCHES: 0 DROPPED PREFETCHES: 0
PSCL4 PREFETCHES SAME FILL-ORIGIN LEVEL: 0 DIFFERENT FILL-ORIGIN LEVEL: 0

Revised Interactions: positive negative neutral
PSCL4_interactions 0 0 0 -nan -nan -nan
PSCL3 TOTAL     ACCESS:      12176  HIT:      12176  MISS:          0  HIT %:        100  MISS %:          0   MPKI: 0
PSCL3 LOAD TRANSLATION ACCESS:      12176  HIT:      12176  MISS:          0  HIT %:        100  MISS %:          0   MPKI: 0
PSCL3 PREFETCH  REQUESTED:          0  ISSUED:          0  USEFUL:          0  USELESS:          0
PSCL3 USEFUL LOAD PREFETCHES:          0 PREFETCH ISSUED TO LOWER LEVEL:          0  ACCURACY: -nan
PSCL3 TIMELY PREFETCHES:          0 LATE PREFETCHES: 0 DROPPED PREFETCHES: 0
PSCL3 PREFETCHES SAME FILL-ORIGIN LEVEL: 0 DIFFERENT FILL-ORIGIN LEVEL: 0

Revised Interactions: positive negative neutral
PSCL3_interactions 0 0 0 -nan -nan -nan
PSCL2 TOTAL     ACCESS:      12176  HIT:      12152  MISS:         24  HIT %:    99.8029  MISS %:   0.197109   MPKI: 0.00048
PSCL2 LOAD TRANSLATION ACCESS:      12176  HIT:      12152  MISS:         24  HIT %:    99.8029  MISS %:   0.197109   MPKI: 0.00048
PSCL2 PREFETCH  REQUESTED:          0  ISSUED:          0  USEFUL:          0  USELESS:          0
PSCL2 USEFUL LOAD PREFETCHES:          0 PREFETCH ISSUED TO LOWER LEVEL:          0  ACCURACY: -nan
PSCL2 TIMELY PREFETCHES:          0 LATE PREFETCHES: 0 DROPPED PREFETCHES: 0
PSCL2 PREFETCHES SAME FILL-ORIGIN LEVEL: 0 DIFFERENT FILL-ORIGIN LEVEL: 0

Revised Interactions: positive negative neutral
PSCL2_interactions 0 0 0 -nan -nan -nan
LLC TOTAL     ACCESS:     780991  HIT:        178  MISS:     780813  HIT %:  0.0227916  MISS %:    99.9772   MPKI: 15.6163
LLC LOAD      ACCESS:      14385  HIT:        176  MISS:      14209  HIT %:     1.2235  MISS %:    98.7765   MPKI: 0.28418
LLC PREFETCH  ACCESS:     765041  HIT:          0  MISS:     765041  HIT %:          0  MISS %:        100   MPKI: 15.3008
LLC WRITEBACK ACCESS:         15  HIT:          0  MISS:         15  HIT %:          0  MISS %:        100   MPKI: 0.0003
LLC LOAD TRANSLATION ACCESS:       1550  HIT:          2  MISS:       1548  HIT %:   0.129032  MISS %:     99.871   MPKI: 0.03096
LLC PREFETCH  REQUESTED:          0  ISSUED:          0  USEFUL:          0  USELESS:          7
LLC USEFUL LOAD PREFETCHES:          0 PREFETCH ISSUED TO LOWER LEVEL:     765042  ACCURACY: 0
LLC TIMELY PREFETCHES:          0 LATE PREFETCHES: 0 DROPPED PREFETCHES: 0
LLC PREFETCHES SAME FILL-ORIGIN LEVEL: 0 DIFFERENT FILL-ORIGIN LEVEL: 0
LLC AVERAGE MISS LATENCY: 71.5783 cycles
LLC RQ	ACCESS:      15935	FORWARD:          0	MERGED:          0	TO_CACHE:      15935
LLC WQ	ACCESS:         15	FORWARD:          0	MERGED:          0	TO_CACHE:         15
LLC PQ	ACCESS:     765042	FORWARD:          0	MERGED:          0	TO_CACHE:     765042

Revised Interactions: positive negative neutral
LLC_interactions 0 0 0 -nan -nan -nan
LLC Dense regions hint to LLC: 0

RAW hits: 0
Loads Generated: 7515793
Loads sent to L1D: 7515792
Stores Generated: 1246801
Stores sent to L1D: 1246801
Major fault: 0 Minor fault: 32181
Allocated PAGES: 32181

stream: 
stream:times selected: 3524170
stream:pref_filled: 2011752
stream:pref_useful: 2011180
stream:pref_late: 9242
stream:misses: 126
stream:misses_by_poll: 0

CS: 
CS:times selected: 3520405
CS:pref_filled: 2833
CS:pref_useful: 2833
CS:pref_late: 0
CS:misses: 82901
CS:misses_by_poll: 4

CPLX: 
CPLX:times selected: 3747
CPLX:pref_filled: 29
CPLX:pref_useful: 29
CPLX:pref_late: 0
CPLX:misses: 524
CPLX:misses_by_poll: 1

NL_L1: 
NL:times selected: 9
NL:pref_filled: 1
NL:pref_useful: 1
NL:pref_late: 0
NL:misses: 3
NL:misses_by_poll: 0

total selections: 7048331
total_filled: 765042
total_useful: 764500
total_late: 9242
total_polluted: 5
total_misses_after_warmup: 55759
conflicts: 0
Degree Incremented Times: 129729
Degree Decremented Times: 0

L1 IP Table Write Accesses: 4386017
L1 IP Table Read Accesses: 4386017
L1 RST Write Accesses: 1085382
L1 RST Read Accesses: 2170764
L1 CSPT Write Accesses: 1085382
L1 CSPT Read Accesses: 1095755
L1 RR Filter Tag Write Accesses: 768351
L1 RR Filter Tag Read Accesses: 272780100
L1 IP Table Tag Write Accesses: 4386017
L1 IP Table Tag Read Accesses: 4386017
L1 RST Tag Write Accesses: 0
L1 RST Tag Read Accesses: 9767561
L1 RR Filter Write Accesses: 0
L1 RR Filter Read Accesses: 9318933
test: 49913
L2 IP Table Read Accesses: 1401406
L2 IP Table Write Accesses: 1387021
L2 IP Table Tag Read Accesses: 700703
L2 IP Table Tag Write Accesses: 700703

DRAM Statistics
 CHANNEL 0
 RQ ROW_BUFFER_HIT:     770828  ROW_BUFFER_MISS:       9970
 DBUS_CONGESTED:          2
 WQ ROW_BUFFER_HIT:          1  ROW_BUFFER_MISS:          7  FULL:          0

 AVG_CONGESTED_CYCLE: 5
 All warmup complete: 2
Channel 0 Bank busy for read cycles: 0
Channel 0 Bank busy for write cycles: 0
Channel 0
Rank 0
0banks busy for read cycles: 51636335
0banks busy for write cycles: 8
1banks busy for read cycles: 30266078
1banks busy for write cycles: 15120
2banks busy for read cycles: 417944
2banks busy for write cycles: 0
3banks busy for read cycles: 54187
3banks busy for write cycles: 0
4banks busy for read cycles: 47698
4banks busy for write cycles: 0
5banks busy for read cycles: 47657
5banks busy for write cycles: 0
6banks busy for read cycles: 254774
6banks busy for write cycles: 0
7banks busy for read cycles: 856395
7banks busy for write cycles: 0
8banks busy for read cycles: 102490
8banks busy for write cycles: 0

CPU 0 Branch Prediction Accuracy: 85.6193% MPKI: 25.1687 Average ROB Occupancy at Mispredict: 13.2695
Branch types
NOT_BRANCH: 41249126 82.4983%
BRANCH_DIRECT_JUMP: 0 0%
BRANCH_INDIRECT: 0 0%
BRANCH_CONDITIONAL: 8750872 17.5017%
BRANCH_DIRECT_CALL: 0 0%
BRANCH_INDIRECT_CALL: 0 0%
BRANCH_RETURN: 0 0%
BRANCH_OTHER: 0 0%

@sumon_overall_L1D    764500     20107     20107       541    765042   1536702   1536702
@Sumon_Early_by_class_L1D    764263       211        26         0
@Sumon_Late_by_class_L1D      9242         0         0         0

@Sumon_Early_by_cycle_L1D     19604     14343     37893    692653         7         0         0         0         0         0         0         0
@Sumon_Late_by_cycle_L1D      1574      6001       828       766        73         0
@Sumon_Early_stream_L1D     19604     14334     37667    692651         7         0         0         0         0         0         0         0
@Sumon_Early_CS_L1D         0         2       207         2         0         0         0         0         0         0         0         0
@Sumon_Early_CPLX_L1D         0         7        19         0         0         0         0         0         0         0         0         0
@Sumon_Late_stream_L1D      1574      6001       828       766        73         0
@Sumon_Late_CS_L1D         0         0         0         0         0         0
@Sumon_Late_CPLX_L1D         0         0         0         0         0         0
@sumon_overall_L2C         0         0         0    765056    765041   3946857   3946857
@Sumon_Early_by_class_L2C         0         0         0         0
@Sumon_Late_by_class_L2C         0         0         0         0

@Sumon_Early_by_cycle_L2C         0         0         0         0         0         0         0         0         0         0         0         0
@Sumon_Late_by_cycle_L2C         0         0         0         0         0         0
@Sumon_Early_stream_L2C         0         0         0         0         0         0         0         0         0         0         0         0
@Sumon_Early_CS_L2C         0         0         0         0         0         0         0         0         0         0         0         0
@Sumon_Early_CPLX_L2C         0         0         0         0         0         0         0         0         0         0         0         0
@Sumon_Late_stream_L2C         0         0         0         0         0         0
@Sumon_Late_CS_L2C         0         0         0         0         0         0
@Sumon_Late_CPLX_L2C         0         0         0         0         0         0
DRAM PAGES: 1048576
Allocated PAGES: 32181
