
*** ChampSim Multicore Out-of-Order Simulator ***

Warmup Instructions: 50000000
Simulation Instructions: 50000000
Number of CPUs: 1
LLC sets: 2048
LLC ways: 16
Off-chip DRAM Size: 4096 MB Channels: 1 Width: 64-bit Data Rate: 6400 MT/s
CPU 0 runs ../../biswa/SPEC2017Traces/605.mcf_s-484B.champsimtrace.xz
.xz
CPU 0 Bimodal branch predictor
BTB has LRU replacement policy
ITLB has LRU replacement policy
DTLB has LRU replacement policy
STLB has LRU replacement policy
L1I has LRU replacement policy
IP Table Entries: 256
L1D has LRU replacement policy
IP_Table L2 entries: 256
Initialize DRRIP state for L2C
epoch: 1000
next table: 1646
cur table: 4972
epoch: 1000
next table: 1569
cur table: 1646
epoch: 1000
next table: 1540
cur table: 1569
epoch: 1000
next table: 1526
cur table: 1540
epoch: 1000
next table: 1518
cur table: 1526
epoch: 1000
next table: 1540
cur table: 1518
epoch: 1000
next table: 1532
cur table: 1540
epoch: 1000
next table: 1587
cur table: 1532
epoch: 1000
next table: 1485
cur table: 1587
epoch: 1000
next table: 1512
cur table: 1485
epoch: 1000
next table: 1498
cur table: 1512
epoch: 1000
next table: 1530
cur table: 1498
epoch: 1000
next table: 1511
cur table: 1530
epoch: 1000
next table: 1517
cur table: 1511
epoch: 1000
next table: 1475
cur table: 1517
epoch: 1000
next table: 1540
cur table: 1475
epoch: 1000
next table: 1492
cur table: 1540
epoch: 1000
next table: 1485
cur table: 1492
epoch: 1000
next table: 1499
cur table: 1485
epoch: 1000
next table: 1499
cur table: 1499
epoch: 1000
next table: 1493
cur table: 1499
epoch: 1000
next table: 1534
cur table: 1493
epoch: 1000
next table: 1525
cur table: 1534
epoch: 1000
next table: 1457
cur table: 1525
epoch: 1000
next table: 1511
cur table: 1457
epoch: 1000
next table: 1787
cur table: 15462
epoch: 1000
next table: 1468
cur table: 1511
epoch: 1000
next table: 1589
cur table: 1787
epoch: 1000
next table: 1477
cur table: 1468
epoch: 1000
next table: 1551
cur table: 1589
epoch: 1000
next table: 1537
cur table: 1477
epoch: 1000
next table: 1498
cur table: 1551
epoch: 1000
next table: 1492
cur table: 1537
epoch: 1000
next table: 1520
cur table: 1492
epoch: 1000
next table: 1478
cur table: 1498
epoch: 1000
next table: 1480
cur table: 1520
epoch: 1000
next table: 1457
cur table: 1478
epoch: 1000
next table: 1485
cur table: 1480
epoch: 1000
next table: 1465
cur table: 1457
epoch: 1000
next table: 1493
cur table: 1485
epoch: 1000
next table: 1457
cur table: 1465
epoch: 1000
next table: 1518
cur table: 1493
epoch: 1000
next table: 1453
cur table: 1457
epoch: 1000
next table: 1508
cur table: 1518
epoch: 1000
next table: 1441
cur table: 1453
epoch: 1000
next table: 1462
cur table: 1508
epoch: 1000
next table: 1438
cur table: 1441
epoch: 1000
next table: 1530
cur table: 1462
epoch: 1000
next table: 1442
cur table: 1438
epoch: 1000
next table: 1498
cur table: 1530
epoch: 1000
next table: 1452
cur table: 1442
epoch: 1000
next table: 1438
cur table: 1498
epoch: 1000
next table: 1418
cur table: 1452
epoch: 1000
next table: 1507
cur table: 1438
epoch: 1000
next table: 1454
cur table: 1418
epoch: 1000
next table: 1526
cur table: 1507
epoch: 1000
next table: 1460
cur table: 1454
epoch: 1000
next table: 1523
cur table: 1526
epoch: 1000
next table: 1500
cur table: 1460
epoch: 1000
next table: 1494
cur table: 1523
epoch: 1000
next table: 1459
cur table: 1500
epoch: 1000
next table: 1485
cur table: 1494
epoch: 1000
next table: 1451
cur table: 1459
epoch: 1000
next table: 1500
cur table: 1485
epoch: 1000
next table: 1467
cur table: 1451
epoch: 1000
next table: 1512
cur table: 1500
epoch: 1000
next table: 1459
cur table: 1467
epoch: 1000
next table: 1572
cur table: 1512
epoch: 1000
next table: 1455
cur table: 1459
epoch: 1000
next table: 1478
cur table: 1572
epoch: 1000
next table: 1426
cur table: 1455
epoch: 1000
next table: 1468
cur table: 1478
epoch: 1000
next table: 1459
cur table: 1426
epoch: 1000
next table: 1514
cur table: 1468
epoch: 1000
next table: 1462
cur table: 1459
epoch: 1000
next table: 1531
cur table: 1514
epoch: 1000
next table: 1467
cur table: 1462
epoch: 1000
next table: 1488
cur table: 1531
epoch: 1000
next table: 1420
cur table: 1467
epoch: 1000
next table: 1464
cur table: 1488
epoch: 1000
next table: 1429
cur table: 1420
epoch: 1000
next table: 1450
cur table: 1464
epoch: 1000
next table: 1449
cur table: 1429
epoch: 1000
next table: 1528
cur table: 1450
epoch: 1000
next table: 1435
cur table: 1449
epoch: 1000
next table: 1473
cur table: 1528
epoch: 1000
next table: 1400
cur table: 1435
epoch: 1000
next table: 1476
cur table: 1473
epoch: 1000
next table: 1407
cur table: 1400
epoch: 1000
next table: 1440
cur table: 1476
epoch: 1000
next table: 1427
cur table: 1407
epoch: 1000
next table: 1457
cur table: 1440
epoch: 1000
next table: 1442
cur table: 1427
epoch: 1000
next table: 1538
cur table: 1457
epoch: 1000
next table: 1451
cur table: 1442
epoch: 1000
next table: 1510
cur table: 1538
epoch: 1000
next table: 1469
cur table: 1451
epoch: 1000
next table: 1498
cur table: 1510
epoch: 1000
next table: 1474
cur table: 1469
epoch: 1000
next table: 1516
cur table: 1498
epoch: 1000
next table: 1488
cur table: 1474
epoch: 1000
next table: 1562
cur table: 1516
epoch: 1000
next table: 1481
cur table: 1562
epoch: 1000
next table: 1418
cur table: 1488
epoch: 1000
next table: 1475
cur table: 1481
epoch: 1000
next table: 1419
cur table: 1418
epoch: 1000
next table: 1444
cur table: 1475
epoch: 1000
next table: 1453
cur table: 1419
epoch: 1000
next table: 1530
cur table: 1444
epoch: 1000
next table: 1641
cur table: 1453
epoch: 1000
next table: 1485
cur table: 1530
epoch: 1000
next table: 1469
cur table: 1485
epoch: 1000
next table: 1708
cur table: 1641
epoch: 1000
next table: 1497
cur table: 1469
epoch: 1000
next table: 1484
cur table: 1497
epoch: 1000
next table: 1722
cur table: 1708
epoch: 1000
next table: 1448
cur table: 1484
epoch: 1000
next table: 1726
cur table: 1722
epoch: 1000
next table: 1502
cur table: 1448
epoch: 1000
next table: 1480
cur table: 1502
epoch: 1000
next table: 1693
cur table: 1726
epoch: 1000
next table: 1481
cur table: 1480
epoch: 1000
next table: 1688
cur table: 1693
epoch: 1000
next table: 1527
cur table: 1481
epoch: 1000
next table: 1492
cur table: 1527
epoch: 1000
next table: 1686
cur table: 1688
epoch: 1000
next table: 1512
cur table: 1492
epoch: 1000
next table: 1465
cur table: 1512
epoch: 1000
next table: 1601
cur table: 1686
epoch: 1000
next table: 1470
cur table: 1465
epoch: 1000
next table: 1583
cur table: 1601
epoch: 1000
next table: 1506
cur table: 1470
epoch: 1000
next table: 1599
cur table: 1583
epoch: 1000
next table: 1477
cur table: 1506
epoch: 1000
next table: 1482
cur table: 1477
epoch: 1000
next table: 1586
cur table: 1599
epoch: 1000
next table: 1526
cur table: 1482
epoch: 1000
next table: 1624
cur table: 1586
epoch: 1000
next table: 1475
cur table: 1526
epoch: 1000
next table: 1473
cur table: 1475
epoch: 1000
next table: 1646
cur table: 1624
epoch: 1000
next table: 1465
cur table: 1473
epoch: 1000
next table: 1571
cur table: 1646
epoch: 1000
next table: 1506
cur table: 1465
epoch: 1000
next table: 1505
cur table: 1506
epoch: 1000
next table: 1663
cur table: 1571
epoch: 1000
next table: 1470
cur table: 1505
epoch: 1000
next table: 1741
cur table: 1663
epoch: 1000
next table: 1511
cur table: 1470
epoch: 1000
next table: 1496
cur table: 1511
epoch: 1000
next table: 1797
cur table: 1741
epoch: 1000
next table: 1483
cur table: 1496
epoch: 1000
next table: 1485
cur table: 1483
epoch: 1000
next table: 1777
cur table: 1797
epoch: 1000
next table: 1485
cur table: 1485
epoch: 1000
next table: 1474
cur table: 1485
epoch: 1000
next table: 1730
cur table: 1777
epoch: 1000
next table: 1561
cur table: 1474
epoch: 1000
next table: 1741
cur table: 1730
epoch: 1000
next table: 1467
cur table: 1561
epoch: 1000
next table: 1494
cur table: 1467
epoch: 1000
next table: 1661
cur table: 1741
epoch: 1000
next table: 1514
cur table: 1494
epoch: 1000
next table: 1670
cur table: 1661
epoch: 1000
next table: 1465
cur table: 1514
epoch: 1000
next table: 1512
cur table: 1465
epoch: 1000
next table: 1831
cur table: 1670
epoch: 1000
next table: 1528
cur table: 1512
epoch: 1000
next table: 1511
cur table: 1528
epoch: 1000
next table: 1753
cur table: 1831
epoch: 1000
next table: 1533
cur table: 1511
epoch: 1000
next table: 1531
cur table: 1533
epoch: 1000
next table: 1849
cur table: 1753
epoch: 1000
next table: 1516
cur table: 1531
epoch: 1000
next table: 1496
cur table: 1516
epoch: 1000
next table: 1853
cur table: 1849
epoch: 1000
next table: 1534
cur table: 1496
epoch: 1000
next table: 1781
cur table: 1853
epoch: 1000
next table: 1539
cur table: 1534
epoch: 1000
next table: 1502
cur table: 1539
epoch: 1000
next table: 1808
cur table: 1781
epoch: 1000
next table: 1500
cur table: 1502
epoch: 1000
next table: 1456
cur table: 1500
epoch: 1000
next table: 1440
cur table: 1456
epoch: 1000
next table: 2041
cur table: 1808
epoch: 1000
next table: 1453
cur table: 1440
epoch: 1000
next table: 1327
cur table: 1453
epoch: 1000
next table: 1319
cur table: 1327
epoch: 1000
next table: 1275
cur table: 1319
epoch: 1000
next table: 2245
cur table: 2041
epoch: 1000
next table: 1274
cur table: 1275
epoch: 1000
next table: 1294
cur table: 1274
epoch: 1000
next table: 1270
cur table: 1294
epoch: 1000
next table: 1288
cur table: 1270
epoch: 1000
next table: 1239
cur table: 1288
epoch: 1000
next table: 2161
cur table: 2245
epoch: 1000
next table: 1233
cur table: 1239
epoch: 1000
next table: 1247
cur table: 1233
epoch: 1000
next table: 1309
cur table: 1247
epoch: 1000
next table: 1306
cur table: 1309
epoch: 1000
next table: 1265
cur table: 1306
epoch: 1000
next table: 1257
cur table: 1265
epoch: 1000
next table: 1235
cur table: 1257
epoch: 1000
next table: 1281
cur table: 1235
epoch: 1000
next table: 2796
cur table: 2161
epoch: 1000
next table: 1227
cur table: 1281
epoch: 1000
next table: 1265
cur table: 1227
epoch: 1000
next table: 1224
cur table: 1265
epoch: 1000
next table: 1257
cur table: 1224
epoch: 1000
next table: 1231
cur table: 1257
epoch: 1000
next table: 1248
cur table: 1231
epoch: 1000
next table: 1273
cur table: 1248
epoch: 1000
next table: 1260
cur table: 1273
epoch: 1000
next table: 1286
cur table: 1260
epoch: 1000
next table: 1192
cur table: 1286
epoch: 1000
next table: 1245
cur table: 1192
epoch: 1000
next table: 1245
cur table: 1245
epoch: 1000
next table: 1219
cur table: 1245
epoch: 1000
next table: 1302
cur table: 1219
epoch: 1000
next table: 1210
cur table: 1302
epoch: 1000
next table: 1257
cur table: 1210
epoch: 1000
next table: 1250
cur table: 1257
epoch: 1000
next table: 4213
cur table: 2796
epoch: 1000
next table: 1225
cur table: 1250
epoch: 1000
next table: 1273
cur table: 1225
epoch: 1000
next table: 1255
cur table: 1273
epoch: 1000
next table: 1207
cur table: 1255
epoch: 1000
next table: 1244
cur table: 1207
epoch: 1000
next table: 1275
cur table: 1244
epoch: 1000
next table: 1245
cur table: 1275
epoch: 1000
next table: 1279
cur table: 1245
epoch: 1000
next table: 1261
cur table: 1279
epoch: 1000
next table: 1246
cur table: 1261
epoch: 1000
next table: 1213
cur table: 1246
epoch: 1000
next table: 1272
cur table: 1213
epoch: 1000
next table: 1219
cur table: 1272
epoch: 1000
next table: 1278
cur table: 1219
epoch: 1000
next table: 1240
cur table: 1278
epoch: 1000
next table: 1276
cur table: 1240
epoch: 1000
next table: 1221
cur table: 1276
epoch: 1000
next table: 1307
cur table: 1221
epoch: 1000
next table: 1268
cur table: 1307
epoch: 1000
next table: 1259
cur table: 1268
epoch: 1000
next table: 1283
cur table: 1259
epoch: 1000
next table: 1198
cur table: 1283
epoch: 1000
next table: 1247
cur table: 1198
epoch: 1000
next table: 1285
cur table: 1247
epoch: 1000
next table: 1231
cur table: 1285
epoch: 1000
next table: 1230
cur table: 1231
epoch: 1000
next table: 1263
cur table: 1230
epoch: 1000
next table: 6430
cur table: 4213
epoch: 1000
next table: 1262
cur table: 1263
epoch: 1000
next table: 1238
cur table: 1262
epoch: 1000
next table: 1211
cur table: 1238
epoch: 1000
next table: 1263
cur table: 1211
epoch: 1000
next table: 1257
cur table: 1263
epoch: 1000
next table: 1282
cur table: 1257
epoch: 1000
next table: 1188
cur table: 1282
epoch: 1000
next table: 1259
cur table: 1188
epoch: 1000
next table: 1261
cur table: 1259
epoch: 1000
next table: 1246
cur table: 1261
epoch: 1000
next table: 1181
cur table: 1246
epoch: 1000
next table: 1207
cur table: 1181
epoch: 1000
next table: 1190
cur table: 1207
epoch: 1000
next table: 1191
cur table: 1190
epoch: 1000
next table: 1180
cur table: 1191
epoch: 1000
next table: 1156
cur table: 1180
epoch: 1000
next table: 1209
cur table: 1156
epoch: 1000
next table: 1189
cur table: 1209
epoch: 1000
next table: 4307
cur table: 6430
epoch: 1000
next table: 1391
cur table: 1189
epoch: 1000
next table: 1387
cur table: 1391
epoch: 1000
next table: 1443
cur table: 1387
epoch: 1000
next table: 1485
cur table: 1443
epoch: 1000
next table: 1472
cur table: 1485
epoch: 1000
next table: 1553
cur table: 1472
epoch: 1000
next table: 3730
cur table: 4307
epoch: 1000
next table: 1483
cur table: 1553
epoch: 1000
next table: 1449
cur table: 1483
epoch: 1000
next table: 1481
cur table: 1449
epoch: 1000
next table: 1472
cur table: 1481
epoch: 1000
next table: 1508
cur table: 1472
epoch: 1000
next table: 3283
cur table: 3730
epoch: 1000
next table: 1485
cur table: 1508
epoch: 1000
next table: 1500
cur table: 1485
epoch: 1000
next table: 1570
cur table: 1500
epoch: 1000
next table: 1511
cur table: 1570
epoch: 1000
next table: 1493
cur table: 1511
epoch: 1000
next table: 2869
cur table: 3283
epoch: 1000
next table: 1511
cur table: 1493
epoch: 1000
next table: 1509
cur table: 1511
epoch: 1000
next table: 1557
cur table: 1509
epoch: 1000
next table: 2665
cur table: 2869
epoch: 1000
next table: 1480
cur table: 1557
epoch: 1000
next table: 1501
cur table: 1480
epoch: 1000
next table: 1464
cur table: 1501
epoch: 1000
next table: 1496
cur table: 1464
epoch: 1000
next table: 2595
cur table: 2665
epoch: 1000
next table: 1494
cur table: 1496
epoch: 1000
next table: 1443
cur table: 1494
epoch: 1000
next table: 1502
cur table: 1443
epoch: 1000
next table: 2485
cur table: 2595
epoch: 1000
next table: 1502
cur table: 1502
epoch: 1000
next table: 1452
cur table: 1502
epoch: 1000
next table: 1588
cur table: 1452
epoch: 1000
next table: 2425
cur table: 2485
epoch: 1000
next table: 1479
cur table: 1588
epoch: 1000
next table: 1508
cur table: 1479
epoch: 1000
next table: 1490
cur table: 1508
epoch: 1000
next table: 1478
cur table: 1490
epoch: 1000
next table: 2576
cur table: 2425
epoch: 1000
next table: 1506
cur table: 1478
epoch: 1000
next table: 1510
cur table: 1506
epoch: 1000
next table: 1559
cur table: 1510
epoch: 1000
next table: 1476
cur table: 1559
epoch: 1000
next table: 1477
cur table: 1476
epoch: 1000
next table: 3233
cur table: 2576
epoch: 1000
next table: 1522
cur table: 1477
epoch: 1000
next table: 1501
cur table: 1522
epoch: 1000
next table: 1500
cur table: 1501
Heartbeat CPU 0 instructions: 10000001 cycles: 3160941 heartbeat IPC: 3.16362 cumulative IPC: 3.16362 (Simulation time: 0 hr 6 min 27 sec) 
epoch: 1000
next table: 1504
cur table: 1500
epoch: 1000
next table: 1494
cur table: 1504
epoch: 1000
next table: 3273
cur table: 3233
epoch: 1000
next table: 1485
cur table: 1494
epoch: 1000
next table: 1487
cur table: 1485
epoch: 1000
next table: 1512
cur table: 1487
epoch: 1000
next table: 1475
cur table: 1512
epoch: 1000
next table: 1532
cur table: 1475
epoch: 1000
next table: 1476
cur table: 1532
epoch: 1000
next table: 3499
cur table: 3273
epoch: 1000
next table: 1496
cur table: 1476
epoch: 1000
next table: 1504
cur table: 1496
epoch: 1000
next table: 1459
cur table: 1504
epoch: 1000
next table: 1543
cur table: 1459
epoch: 1000
next table: 1465
cur table: 1543
epoch: 1000
next table: 3177
cur table: 3499
epoch: 1000
next table: 1476
cur table: 1465
epoch: 1000
next table: 1477
cur table: 1476
epoch: 1000
next table: 1496
cur table: 1477
epoch: 1000
next table: 1473
cur table: 1496
epoch: 1000
next table: 1502
cur table: 1473
epoch: 1000
next table: 3066
cur table: 3177
epoch: 1000
next table: 1575
cur table: 1502
epoch: 1000
next table: 1491
cur table: 1575
epoch: 1000
next table: 1476
cur table: 1491
epoch: 1000
next table: 1440
cur table: 1476
epoch: 1000
next table: 1515
cur table: 1440
epoch: 1000
next table: 3127
cur table: 3066
epoch: 1000
next table: 1491
cur table: 1515
epoch: 1000
next table: 1493
cur table: 1491
epoch: 1000
next table: 1471
cur table: 1493
epoch: 1000
next table: 1526
cur table: 1471
epoch: 1000
next table: 1481
cur table: 1526
epoch: 1000
next table: 3150
cur table: 3127
epoch: 1000
next table: 1465
cur table: 1481
epoch: 1000
next table: 1500
cur table: 1465
epoch: 1000
next table: 1529
cur table: 1500
epoch: 1000
next table: 1527
cur table: 1529
epoch: 1000
next table: 1520
cur table: 1527
epoch: 1000
next table: 1535
cur table: 1520
epoch: 1000
next table: 1483
cur table: 1535
epoch: 1000
next table: 4300
cur table: 3150
epoch: 1000
next table: 1557
cur table: 1483
epoch: 1000
next table: 1489
cur table: 1557
epoch: 1000
next table: 1533
cur table: 1489
epoch: 1000
next table: 1521
cur table: 1533
epoch: 1000
next table: 1509
cur table: 1521
epoch: 1000
next table: 1510
cur table: 1509
epoch: 1000
next table: 1545
cur table: 1510
epoch: 1000
next table: 1522
cur table: 1545
epoch: 1000
next table: 1488
cur table: 1522
epoch: 1000
next table: 5173
cur table: 4300
epoch: 1000
next table: 1560
cur table: 1488
epoch: 1000
next table: 1518
cur table: 1560
epoch: 1000
next table: 1527
cur table: 1518
epoch: 1000
next table: 1573
cur table: 1527
epoch: 1000
next table: 1506
cur table: 1573
epoch: 1000
next table: 1543
cur table: 1506
epoch: 1000
next table: 1497
cur table: 1543
epoch: 1000
next table: 1536
cur table: 1497
epoch: 1000
next table: 4998
cur table: 5173
epoch: 1000
next table: 1536
cur table: 1536
epoch: 1000
next table: 1504
cur table: 1536
epoch: 1000
next table: 1527
cur table: 1504
epoch: 1000
next table: 1520
cur table: 1527
epoch: 1000
next table: 1551
cur table: 1520
epoch: 1000
next table: 1536
cur table: 1551
epoch: 1000
next table: 1494
cur table: 1536
epoch: 1000
next table: 1464
cur table: 1494
epoch: 1000
next table: 1494
cur table: 1464
epoch: 1000
next table: 1434
cur table: 1494
epoch: 1000
next table: 1322
cur table: 1434
epoch: 1000
next table: 1292
cur table: 1322
epoch: 1000
next table: 1259
cur table: 1292
epoch: 1000
next table: 1256
cur table: 1259
epoch: 1000
next table: 1251
cur table: 1256
epoch: 1000
next table: 1255
cur table: 1251
epoch: 1000
next table: 1309
cur table: 1255
epoch: 1000
next table: 1241
cur table: 1309
epoch: 1000
next table: 1223
cur table: 1241
epoch: 1000
next table: 1277
cur table: 1223
epoch: 1000
next table: 1263
cur table: 1277
epoch: 1000
next table: 1267
cur table: 1263
epoch: 1000
next table: 1270
cur table: 1267
epoch: 1000
next table: 1243
cur table: 1270
epoch: 1000
next table: 1274
cur table: 1243
epoch: 1000
next table: 1260
cur table: 1274
epoch: 1000
next table: 1242
cur table: 1260
epoch: 1000
next table: 1284
cur table: 1242
epoch: 1000
next table: 1206
cur table: 1284
epoch: 1000
next table: 1280
cur table: 1206
epoch: 1000
next table: 10114
cur table: 4998
epoch: 1000
next table: 1221
cur table: 1280
epoch: 1000
next table: 1240
cur table: 1221
epoch: 1000
next table: 1263
cur table: 1240
epoch: 1000
next table: 1248
cur table: 1263
epoch: 1000
next table: 1254
cur table: 1248
epoch: 1000
next table: 1250
cur table: 1254
epoch: 1000
next table: 1233
cur table: 1250
epoch: 1000
next table: 1251
cur table: 1233
epoch: 1000
next table: 1249
cur table: 1251
epoch: 1000
next table: 1262
cur table: 1249
epoch: 1000
next table: 1254
cur table: 1262
epoch: 1000
next table: 1274
cur table: 1254
epoch: 1000
next table: 1215
cur table: 1274
epoch: 1000
next table: 1265
cur table: 1215
epoch: 1000
next table: 1251
cur table: 1265
epoch: 1000
next table: 1269
cur table: 1251
epoch: 1000
next table: 1247
cur table: 1269
epoch: 1000
next table: 1224
cur table: 1247
epoch: 1000
next table: 1259
cur table: 1224
epoch: 1000
next table: 1265
cur table: 1259
epoch: 1000
next table: 1252
cur table: 1265
epoch: 1000
next table: 1245
cur table: 1252
epoch: 1000
next table: 1233
cur table: 1245
epoch: 1000
next table: 1223
cur table: 1233
epoch: 1000
next table: 1255
cur table: 1223
epoch: 1000
next table: 1230
cur table: 1255
epoch: 1000
next table: 1260
cur table: 1230
epoch: 1000
next table: 1263
cur table: 1260
epoch: 1000
next table: 1252
cur table: 1263
epoch: 1000
next table: 1210
cur table: 1252
epoch: 1000
next table: 1271
cur table: 1210
epoch: 1000
next table: 1215
cur table: 1271
epoch: 1000
next table: 1303
cur table: 1215
epoch: 1000
next table: 1275
cur table: 1303
epoch: 1000
next table: 1240
cur table: 1275
epoch: 1000
next table: 1201
cur table: 1240
epoch: 1000
next table: 1263
cur table: 1201
epoch: 1000
next table: 1257
cur table: 1263
epoch: 1000
next table: 1267
cur table: 1257
epoch: 1000
next table: 1196
cur table: 1267
epoch: 1000
next table: 1263
cur table: 1196
epoch: 1000
next table: 1270
cur table: 1263
epoch: 1000
next table: 1228
cur table: 1270
epoch: 1000
next table: 1202
cur table: 1228
epoch: 1000
next table: 1286
cur table: 1202
epoch: 1000
next table: 1234
cur table: 1286
epoch: 1000
next table: 1255
cur table: 1234
epoch: 1000
next table: 1240
cur table: 1255
epoch: 1000
next table: 1213
cur table: 1240
epoch: 1000
next table: 1259
cur table: 1213
epoch: 1000
next table: 1183
cur table: 1259
epoch: 1000
next table: 1184
cur table: 1183
epoch: 1000
next table: 1161
cur table: 1184
epoch: 1000
next table: 1194
cur table: 1161
epoch: 1000
next table: 1188
cur table: 1194
epoch: 1000
next table: 1192
cur table: 1188
epoch: 1000
next table: 1196
cur table: 1192
epoch: 1000
next table: 1165
cur table: 1196
epoch: 1000
next table: 1384
cur table: 1165
epoch: 1000
next table: 1296
cur table: 1384
epoch: 1000
next table: 1282
cur table: 1296
epoch: 1000
next table: 1253
cur table: 1282
epoch: 1000
next table: 1295
cur table: 1253
epoch: 1000
next table: 1321
cur table: 1295
epoch: 1000
next table: 1303
cur table: 1321
epoch: 1000
next table: 1332
cur table: 1303
epoch: 1000
next table: 1309
cur table: 1332
epoch: 1000
next table: 1331
cur table: 1309
epoch: 1000
next table: 1313
cur table: 1331
epoch: 1000
next table: 1314
cur table: 1313
epoch: 1000
next table: 1366
cur table: 1314
epoch: 1000
next table: 1355
cur table: 1366
epoch: 1000
next table: 1338
cur table: 1355
epoch: 1000
next table: 1375
cur table: 1338
epoch: 1000
next table: 1369
cur table: 1375
epoch: 1000
next table: 1324
cur table: 1369
epoch: 1000
next table: 1356
cur table: 1324
epoch: 1000
next table: 1299
cur table: 1356
epoch: 1000
next table: 17987
cur table: 10114
epoch: 1000
next table: 1364
cur table: 1299
epoch: 1000
next table: 1280
cur table: 1364
epoch: 1000
next table: 1290
cur table: 1280
epoch: 1000
next table: 1269
cur table: 1290
epoch: 1000
next table: 1256
cur table: 1269
epoch: 1000
next table: 1276
cur table: 1256
epoch: 1000
next table: 1329
cur table: 1276
epoch: 1000
next table: 1321
cur table: 1329
epoch: 1000
next table: 1357
cur table: 1321
epoch: 1000
next table: 1277
cur table: 1357
epoch: 1000
next table: 1327
cur table: 1277
epoch: 1000
next table: 1340
cur table: 1327
epoch: 1000
next table: 1347
cur table: 1340
epoch: 1000
next table: 1352
cur table: 1347
epoch: 1000
next table: 1293
cur table: 1352
epoch: 1000
next table: 1350
cur table: 1293
epoch: 1000
next table: 1341
cur table: 1350
epoch: 1000
next table: 1290
cur table: 1341
epoch: 1000
next table: 1347
cur table: 1290
epoch: 1000
next table: 1356
cur table: 1347
epoch: 1000
next table: 1283
cur table: 1356
epoch: 1000
next table: 1348
cur table: 1283
epoch: 1000
next table: 1330
cur table: 1348
epoch: 1000
next table: 1327
cur table: 1330
epoch: 1000
next table: 1310
cur table: 1327
epoch: 1000
next table: 1329
cur table: 1310
epoch: 1000
next table: 1316
cur table: 1329
epoch: 1000
next table: 1326
cur table: 1316
epoch: 1000
next table: 1242
cur table: 1326
epoch: 1000
next table: 1253
cur table: 1242
epoch: 1000
next table: 1263
cur table: 1253
epoch: 1000
next table: 1216
cur table: 1263
epoch: 1000
next table: 1244
cur table: 1216
epoch: 1000
next table: 1184
cur table: 1244
epoch: 1000
next table: 1167
cur table: 1184
epoch: 1000
next table: 1193
cur table: 1167
epoch: 1000
next table: 1199
cur table: 1193
epoch: 1000
next table: 1187
cur table: 1199
epoch: 1000
next table: 1178
cur table: 1187
epoch: 1000
next table: 1205
cur table: 1178
epoch: 1000
next table: 1197
cur table: 1205
epoch: 1000
next table: 1173
cur table: 1197
epoch: 1000
next table: 1205
cur table: 1173
epoch: 1000
next table: 1192
cur table: 1205
epoch: 1000
next table: 1171
cur table: 1192
epoch: 1000
next table: 1176
cur table: 1171
epoch: 1000
next table: 1166
cur table: 1176
epoch: 1000
next table: 1182
cur table: 1166
epoch: 1000
next table: 1183
cur table: 1182
epoch: 1000
next table: 1179
cur table: 1183
epoch: 1000
next table: 1217
cur table: 1179
epoch: 1000
next table: 1191
cur table: 1217
epoch: 1000
next table: 1189
cur table: 1191
epoch: 1000
next table: 1209
cur table: 1189
epoch: 1000
next table: 1210
cur table: 1209
epoch: 1000
next table: 1173
cur table: 1210
epoch: 1000
next table: 1158
cur table: 1173
epoch: 1000
next table: 1182
cur table: 1158
epoch: 1000
next table: 1178
cur table: 1182
epoch: 1000
next table: 1181
cur table: 1178
epoch: 1000
next table: 1194
cur table: 1181
epoch: 1000
next table: 1183
cur table: 1194
epoch: 1000
next table: 1203
cur table: 1183
epoch: 1000
next table: 1180
cur table: 1203
epoch: 1000
next table: 1214
cur table: 1180
epoch: 1000
next table: 1197
cur table: 1214
epoch: 1000
next table: 1181
cur table: 1197
epoch: 1000
next table: 1182
cur table: 1181
epoch: 1000
next table: 1186
cur table: 1182
epoch: 1000
next table: 1175
cur table: 1186
epoch: 1000
next table: 1180
cur table: 1175
epoch: 1000
next table: 1177
cur table: 1180
epoch: 1000
next table: 1186
cur table: 1177
epoch: 1000
next table: 1199
cur table: 1186
epoch: 1000
next table: 1171
cur table: 1199
epoch: 1000
next table: 1186
cur table: 1171
epoch: 1000
next table: 1165
cur table: 1186
epoch: 1000
next table: 1181
cur table: 1165
epoch: 1000
next table: 1164
cur table: 1181
epoch: 1000
next table: 1163
cur table: 1164
epoch: 1000
next table: 1161
cur table: 1163
epoch: 1000
next table: 1168
cur table: 1161
epoch: 1000
next table: 1197
cur table: 1168
epoch: 1000
next table: 1192
cur table: 1197
epoch: 1000
next table: 1179
cur table: 1192
epoch: 1000
next table: 1203
cur table: 1179
epoch: 1000
next table: 1185
cur table: 1203
epoch: 1000
next table: 1173
cur table: 1185
epoch: 1000
next table: 1195
cur table: 1173
epoch: 1000
next table: 1180
cur table: 1195
epoch: 1000
next table: 1171
cur table: 1180
epoch: 1000
next table: 1193
cur table: 1171
epoch: 1000
next table: 1191
cur table: 1193
epoch: 1000
next table: 19578
cur table: 17987
epoch: 1000
next table: 1185
cur table: 1191
epoch: 1000
next table: 1172
cur table: 1185
epoch: 1000
next table: 1192
cur table: 1172
epoch: 1000
next table: 1197
cur table: 1192
epoch: 1000
next table: 1194
cur table: 1197
epoch: 1000
next table: 1187
cur table: 1194
epoch: 1000
next table: 1176
cur table: 1187
epoch: 1000
next table: 1173
cur table: 1176
epoch: 1000
next table: 1178
cur table: 1173
epoch: 1000
next table: 1169
cur table: 1178
epoch: 1000
next table: 2623
cur table: 19578
epoch: 1000
next table: 1179
cur table: 1169
epoch: 1000
next table: 1182
cur table: 1179
epoch: 1000
next table: 1215
cur table: 1182
epoch: 1000
next table: 1164
cur table: 1215
epoch: 1000
next table: 1184
cur table: 1164
epoch: 1000
next table: 1192
cur table: 1184
epoch: 1000
next table: 1224
cur table: 1192
epoch: 1000
next table: 1305
cur table: 1224
epoch: 1000
next table: 1341
cur table: 1305
epoch: 1000
next table: 2787
cur table: 2623
epoch: 1000
next table: 1460
cur table: 1341
epoch: 1000
next table: 1467
cur table: 1460
epoch: 1000
next table: 1507
cur table: 1467
epoch: 1000
next table: 1532
cur table: 1507
epoch: 1000
next table: 2857
cur table: 2787
epoch: 1000
next table: 1443
cur table: 1532
epoch: 1000
next table: 1502
cur table: 1443
epoch: 1000
next table: 1475
cur table: 1502
epoch: 1000
next table: 1479
cur table: 1475
epoch: 1000
next table: 2718
cur table: 2857
epoch: 1000
next table: 1452
cur table: 1479
epoch: 1000
next table: 1497
cur table: 1452
epoch: 1000
next table: 1512
cur table: 1497
epoch: 1000
next table: 1471
cur table: 1512
epoch: 1000
next table: 1506
cur table: 1471
epoch: 1000
next table: 2939
cur table: 2718
epoch: 1000
next table: 1549
cur table: 1506
epoch: 1000
next table: 1484
cur table: 1549
epoch: 1000
next table: 1475
cur table: 1484
epoch: 1000
next table: 1504
cur table: 1475
epoch: 1000
next table: 3002
cur table: 2939
epoch: 1000
next table: 1556
cur table: 1504
epoch: 1000
next table: 1497
cur table: 1556
epoch: 1000
next table: 1464
cur table: 1497
epoch: 1000
next table: 1520
cur table: 1464
epoch: 1000
next table: 1493
cur table: 1520
epoch: 1000
next table: 3019
cur table: 3002
epoch: 1000
next table: 1519
cur table: 1493
epoch: 1000
next table: 1511
cur table: 1519
epoch: 1000
next table: 1493
cur table: 1511
epoch: 1000
next table: 1504
cur table: 1493
epoch: 1000
next table: 1527
cur table: 1504
epoch: 1000
next table: 1456
cur table: 1527
epoch: 1000
next table: 3342
cur table: 3019
epoch: 1000
next table: 1500
cur table: 1456
epoch: 1000
next table: 1473
cur table: 1500
epoch: 1000
next table: 1462
cur table: 1473
epoch: 1000
next table: 1488
cur table: 1462
epoch: 1000
next table: 1489
cur table: 1488
epoch: 1000
next table: 3155
cur table: 3342
epoch: 1000
next table: 1541
cur table: 1489
epoch: 1000
next table: 1475
cur table: 1541
epoch: 1000
next table: 1501
cur table: 1475
epoch: 1000
next table: 1469
cur table: 1501
epoch: 1000
next table: 1485
cur table: 1469
epoch: 1000
next table: 3110
cur table: 3155
epoch: 1000
next table: 1485
cur table: 1485
epoch: 1000
next table: 1548
cur table: 1485
epoch: 1000
next table: 1479
cur table: 1548
epoch: 1000
next table: 1463
cur table: 1479
epoch: 1000
next table: 1567
cur table: 1463
epoch: 1000
next table: 3401
cur table: 3110
epoch: 1000
next table: 1462
cur table: 1567
epoch: 1000
next table: 1493
cur table: 1462
epoch: 1000
next table: 1512
cur table: 1493
epoch: 1000
next table: 1454
cur table: 1512
epoch: 1000
next table: 1499
cur table: 1454
epoch: 1000
next table: 1497
cur table: 1499
epoch: 1000
next table: 1489
cur table: 1497
epoch: 1000
next table: 3654
cur table: 3401
epoch: 1000
next table: 1478
cur table: 1489
epoch: 1000
next table: 1512
cur table: 1478
epoch: 1000
next table: 1476
cur table: 1512
epoch: 1000
next table: 1503
cur table: 1476
epoch: 1000
next table: 1525
cur table: 1503
epoch: 1000
next table: 1520
cur table: 1525
epoch: 1000
next table: 1508
cur table: 1520
epoch: 1000
next table: 4057
cur table: 3654
epoch: 1000
next table: 1503
cur table: 1508
epoch: 1000
next table: 1524
cur table: 1503
epoch: 1000
next table: 1467
cur table: 1524
epoch: 1000
next table: 1477
cur table: 1467
epoch: 1000
next table: 1538
cur table: 1477
epoch: 1000
next table: 1483
cur table: 1538
epoch: 1000
next table: 1495
cur table: 1483
epoch: 1000
next table: 4376
cur table: 4057
epoch: 1000
next table: 1511
cur table: 1495
epoch: 1000
next table: 1556
cur table: 1511
epoch: 1000
next table: 1479
cur table: 1556
epoch: 1000
next table: 1504
cur table: 1479
epoch: 1000
next table: 1536
cur table: 1504
epoch: 1000
next table: 1523
cur table: 1536
epoch: 1000
next table: 1507
cur table: 1523
epoch: 1000
next table: 4132
cur table: 4376
epoch: 1000
next table: 1487
cur table: 1507
epoch: 1000
next table: 1536
cur table: 1487
epoch: 1000
next table: 1493
cur table: 1536
epoch: 1000
next table: 1525
cur table: 1493
epoch: 1000
next table: 1480
cur table: 1525
epoch: 1000
next table: 1512
cur table: 1480
epoch: 1000
next table: 1505
cur table: 1512
epoch: 1000
next table: 1483
cur table: 1505
epoch: 1000
next table: 1529
cur table: 1483
epoch: 1000
next table: 1506
cur table: 1529
epoch: 1000
next table: 1519
cur table: 1506
epoch: 1000
next table: 1515
cur table: 1519
epoch: 1000
next table: 1502
cur table: 1515
epoch: 1000
next table: 6719
cur table: 4132
epoch: 1000
next table: 1508
cur table: 1502
epoch: 1000
next table: 1480
cur table: 1508
epoch: 1000
next table: 1543
cur table: 1480
epoch: 1000
next table: 1505
cur table: 1543
epoch: 1000
next table: 1476
cur table: 1505
epoch: 1000
next table: 1510
cur table: 1476
epoch: 1000
next table: 1502
cur table: 1510
epoch: 1000
next table: 1551
cur table: 1502
epoch: 1000
next table: 1469
cur table: 1551
epoch: 1000
next table: 1523
cur table: 1469
epoch: 1000
next table: 1472
cur table: 1523
epoch: 1000
next table: 6019
cur table: 6719
epoch: 1000
next table: 1504
cur table: 1472
epoch: 1000
next table: 1495
cur table: 1504
epoch: 1000
next table: 1540
cur table: 1495
epoch: 1000
next table: 1487
cur table: 1540
Heartbeat CPU 0 instructions: 20000001 cycles: 6351213 heartbeat IPC: 3.13453 cumulative IPC: 3.149 (Simulation time: 0 hr 12 min 13 sec) 
epoch: 1000
next table: 1499
cur table: 1487
epoch: 1000
next table: 1466
cur table: 1499
epoch: 1000
next table: 1494
cur table: 1466
epoch: 1000
next table: 1513
cur table: 1494
epoch: 1000
next table: 1458
cur table: 1513
epoch: 1000
next table: 1469
cur table: 1458
epoch: 1000
next table: 4979
cur table: 6019
epoch: 1000
next table: 1496
cur table: 1469
epoch: 1000
next table: 1480
cur table: 1496
epoch: 1000
next table: 1497
cur table: 1480
epoch: 1000
next table: 1497
cur table: 1497
epoch: 1000
next table: 1507
cur table: 1497
epoch: 1000
next table: 1572
cur table: 1507
epoch: 1000
next table: 1518
cur table: 1572
epoch: 1000
next table: 1530
cur table: 1518
epoch: 1000
next table: 1524
cur table: 1530
epoch: 1000
next table: 1545
cur table: 1524
epoch: 1000
next table: 1582
cur table: 1545
epoch: 1000
next table: 1547
cur table: 1582
epoch: 1000
next table: 1524
cur table: 1547
epoch: 1000
next table: 1549
cur table: 1524
epoch: 1000
next table: 1563
cur table: 1549
epoch: 1000
next table: 1582
cur table: 1563
epoch: 1000
next table: 1514
cur table: 1582
epoch: 1000
next table: 1570
cur table: 1514
epoch: 1000
next table: 1537
cur table: 1570
epoch: 1000
next table: 1555
cur table: 1537
epoch: 1000
next table: 1515
cur table: 1555
epoch: 1000
next table: 1567
cur table: 1515
epoch: 1000
next table: 1531
cur table: 1567
epoch: 1000
next table: 1510
cur table: 1531
epoch: 1000
next table: 12366
cur table: 4979
epoch: 1000
next table: 1440
cur table: 1510
epoch: 1000
next table: 1446
cur table: 1440
epoch: 1000
next table: 1320
cur table: 1446
epoch: 1000
next table: 1298
cur table: 1320
epoch: 1000
next table: 1277
cur table: 1298
epoch: 1000
next table: 1241
cur table: 1277
epoch: 1000
next table: 1225
cur table: 1241
epoch: 1000
next table: 1239
cur table: 1225
epoch: 1000
next table: 1280
cur table: 1239
epoch: 1000
next table: 1262
cur table: 1280
epoch: 1000
next table: 1271
cur table: 1262
epoch: 1000
next table: 1299
cur table: 1271
epoch: 1000
next table: 1263
cur table: 1299
epoch: 1000
next table: 1251
cur table: 1263
epoch: 1000
next table: 1243
cur table: 1251
epoch: 1000
next table: 1262
cur table: 1243
epoch: 1000
next table: 1278
cur table: 1262
epoch: 1000
next table: 1266
cur table: 1278
epoch: 1000
next table: 1229
cur table: 1266
epoch: 1000
next table: 1273
cur table: 1229
epoch: 1000
next table: 1191
cur table: 1273
epoch: 1000
next table: 1265
cur table: 1191
epoch: 1000
next table: 1230
cur table: 1265
epoch: 1000
next table: 1261
cur table: 1230
epoch: 1000
next table: 1259
cur table: 1261
epoch: 1000
next table: 1237
cur table: 1259
epoch: 1000
next table: 1271
cur table: 1237
epoch: 1000
next table: 1235
cur table: 1271
epoch: 1000
next table: 1221
cur table: 1235
epoch: 1000
next table: 1260
cur table: 1221
epoch: 1000
next table: 1248
cur table: 1260
epoch: 1000
next table: 1232
cur table: 1248
epoch: 1000
next table: 1271
cur table: 1232
epoch: 1000
next table: 1236
cur table: 1271
epoch: 1000
next table: 1220
cur table: 1236
epoch: 1000
next table: 1255
cur table: 1220
epoch: 1000
next table: 1268
cur table: 1255
epoch: 1000
next table: 1233
cur table: 1268
epoch: 1000
next table: 1299
cur table: 1233
epoch: 1000
next table: 1273
cur table: 1299
epoch: 1000
next table: 1211
cur table: 1273
epoch: 1000
next table: 1261
cur table: 1211
epoch: 1000
next table: 1237
cur table: 1261
epoch: 1000
next table: 1244
cur table: 1237
epoch: 1000
next table: 1270
cur table: 1244
epoch: 1000
next table: 1266
cur table: 1270
epoch: 1000
next table: 1233
cur table: 1266
epoch: 1000
next table: 1262
cur table: 1233
epoch: 1000
next table: 1252
cur table: 1262
epoch: 1000
next table: 1235
cur table: 1252
epoch: 1000
next table: 1241
cur table: 1235
epoch: 1000
next table: 1248
cur table: 1241
epoch: 1000
next table: 1240
cur table: 1248
epoch: 1000
next table: 1213
cur table: 1240
epoch: 1000
next table: 1325
cur table: 1213
epoch: 1000
next table: 1292
cur table: 1325
epoch: 1000
next table: 1255
cur table: 1292
epoch: 1000
next table: 1273
cur table: 1255
epoch: 1000
next table: 1191
cur table: 1273
epoch: 1000
next table: 1262
cur table: 1191
epoch: 1000
next table: 1241
cur table: 1262
epoch: 1000
next table: 1237
cur table: 1241
epoch: 1000
next table: 1220
cur table: 1237
epoch: 1000
next table: 1255
cur table: 1220
epoch: 1000
next table: 1233
cur table: 1255
epoch: 1000
next table: 1201
cur table: 1233
epoch: 1000
next table: 1276
cur table: 1201
epoch: 1000
next table: 1240
cur table: 1276
epoch: 1000
next table: 1246
cur table: 1240
epoch: 1000
next table: 1259
cur table: 1246
epoch: 1000
next table: 1222
cur table: 1259
epoch: 1000
next table: 1217
cur table: 1222
epoch: 1000
next table: 1186
cur table: 1217
epoch: 1000
next table: 1174
cur table: 1186
epoch: 1000
next table: 1174
cur table: 1174
epoch: 1000
next table: 1178
cur table: 1174
epoch: 1000
next table: 1164
cur table: 1178
epoch: 1000
next table: 1178
cur table: 1164
epoch: 1000
next table: 1151
cur table: 1178
epoch: 1000
next table: 1261
cur table: 1151
epoch: 1000
next table: 1358
cur table: 1261
epoch: 1000
next table: 1363
cur table: 1358
epoch: 1000
next table: 1365
cur table: 1363
epoch: 1000
next table: 1251
cur table: 1365
epoch: 1000
next table: 1316
cur table: 1251
epoch: 1000
next table: 1307
cur table: 1316
epoch: 1000
next table: 1334
cur table: 1307
epoch: 1000
next table: 1347
cur table: 1334
epoch: 1000
next table: 1340
cur table: 1347
epoch: 1000
next table: 1309
cur table: 1340
epoch: 1000
next table: 1367
cur table: 1309
epoch: 1000
next table: 1364
cur table: 1367
epoch: 1000
next table: 1329
cur table: 1364
epoch: 1000
next table: 1371
cur table: 1329
epoch: 1000
next table: 1352
cur table: 1371
epoch: 1000
next table: 1320
cur table: 1352
epoch: 1000
next table: 1363
cur table: 1320
epoch: 1000
next table: 1362
cur table: 1363
epoch: 1000
next table: 1339
cur table: 1362
epoch: 1000
next table: 1314
cur table: 1339
epoch: 1000
next table: 1348
cur table: 1314
epoch: 1000
next table: 1292
cur table: 1348
epoch: 1000
next table: 1336
cur table: 1292
epoch: 1000
next table: 1286
cur table: 1336
epoch: 1000
next table: 1267
cur table: 1286
epoch: 1000
next table: 1263
cur table: 1267
epoch: 1000
next table: 1327
cur table: 1263
epoch: 1000
next table: 1329
cur table: 1327
epoch: 1000
next table: 1356
cur table: 1329
epoch: 1000
next table: 1352
cur table: 1356
epoch: 1000
next table: 1325
cur table: 1352
epoch: 1000
next table: 1332
cur table: 1325
epoch: 1000
next table: 1328
cur table: 1332
epoch: 1000
next table: 1333
cur table: 1328
epoch: 1000
next table: 1337
cur table: 1333
epoch: 1000
next table: 1286
cur table: 1337
epoch: 1000
next table: 1358
cur table: 1286
epoch: 1000
next table: 1320
cur table: 1358
epoch: 1000
next table: 1356
cur table: 1320
epoch: 1000
next table: 1341
cur table: 1356
epoch: 1000
next table: 1352
cur table: 1341
epoch: 1000
next table: 1354
cur table: 1352
epoch: 1000
next table: 1342
cur table: 1354
epoch: 1000
next table: 1320
cur table: 1342
epoch: 1000
next table: 1364
cur table: 1320
epoch: 1000
next table: 1333
cur table: 1364
epoch: 1000
next table: 1347
cur table: 1333
epoch: 1000
next table: 1376
cur table: 1347
epoch: 1000
next table: 1331
cur table: 1376
epoch: 1000
next table: 1304
cur table: 1331
epoch: 1000
next table: 1332
cur table: 1304
epoch: 1000
next table: 1303
cur table: 1332
epoch: 1000
next table: 1293
cur table: 1303
epoch: 1000
next table: 1266
cur table: 1293
epoch: 1000
next table: 1276
cur table: 1266
epoch: 1000
next table: 1246
cur table: 1276
epoch: 1000
next table: 1263
cur table: 1246
epoch: 1000
next table: 1184
cur table: 1263
epoch: 1000
next table: 1260
cur table: 1184
epoch: 1000
next table: 1257
cur table: 1260
epoch: 1000
next table: 1208
cur table: 1257
epoch: 1000
next table: 1197
cur table: 1208
epoch: 1000
next table: 1176
cur table: 1197
epoch: 1000
next table: 1191
cur table: 1176
epoch: 1000
next table: 1167
cur table: 1191
epoch: 1000
next table: 1169
cur table: 1167
epoch: 1000
next table: 1180
cur table: 1169
epoch: 1000
next table: 1167
cur table: 1180
epoch: 1000
next table: 1196
cur table: 1167
epoch: 1000
next table: 1194
cur table: 1196
epoch: 1000
next table: 1178
cur table: 1194
epoch: 1000
next table: 1202
cur table: 1178
epoch: 1000
next table: 1167
cur table: 1202
epoch: 1000
next table: 1182
cur table: 1167
epoch: 1000
next table: 1184
cur table: 1182
epoch: 1000
next table: 1186
cur table: 1184
epoch: 1000
next table: 1184
cur table: 1186
epoch: 1000
next table: 1177
cur table: 1184
epoch: 1000
next table: 1195
cur table: 1177
epoch: 1000
next table: 1190
cur table: 1195
epoch: 1000
next table: 1171
cur table: 1190
epoch: 1000
next table: 1185
cur table: 1171
epoch: 1000
next table: 1195
cur table: 1185
epoch: 1000
next table: 1203
cur table: 1195
epoch: 1000
next table: 1196
cur table: 1203
epoch: 1000
next table: 1188
cur table: 1196
epoch: 1000
next table: 1188
cur table: 1188
epoch: 1000
next table: 1177
cur table: 1188
epoch: 1000
next table: 1185
cur table: 1177
epoch: 1000
next table: 1178
cur table: 1185
epoch: 1000
next table: 1191
cur table: 1178
epoch: 1000
next table: 1205
cur table: 1191
epoch: 1000
next table: 1200
cur table: 1205
epoch: 1000
next table: 1171
cur table: 1200
epoch: 1000
next table: 1199
cur table: 1171
epoch: 1000
next table: 1173
cur table: 1199
epoch: 1000
next table: 1174
cur table: 1173
epoch: 1000
next table: 1182
cur table: 1174
epoch: 1000
next table: 1185
cur table: 1182
epoch: 1000
next table: 1190
cur table: 1185
epoch: 1000
next table: 1172
cur table: 1190
epoch: 1000
next table: 1186
cur table: 1172
epoch: 1000
next table: 1185
cur table: 1186
epoch: 1000
next table: 1182
cur table: 1185
epoch: 1000
next table: 1184
cur table: 1182
epoch: 1000
next table: 1175
cur table: 1184
epoch: 1000
next table: 1219
cur table: 1175
epoch: 1000
next table: 1190
cur table: 1219
epoch: 1000
next table: 1192
cur table: 1190
epoch: 1000
next table: 1180
cur table: 1192
epoch: 1000
next table: 1183
cur table: 1180
epoch: 1000
next table: 1191
cur table: 1183
epoch: 1000
next table: 1165
cur table: 1191
epoch: 1000
next table: 1174
cur table: 1165
epoch: 1000
next table: 1192
cur table: 1174
epoch: 1000
next table: 1171
cur table: 1192
epoch: 1000
next table: 1173
cur table: 1171
epoch: 1000
next table: 1178
cur table: 1173
epoch: 1000
next table: 1183
cur table: 1178
epoch: 1000
next table: 1196
cur table: 1183
epoch: 1000
next table: 1171
cur table: 1196
epoch: 1000
next table: 1155
cur table: 1171
epoch: 1000
next table: 1162
cur table: 1155
epoch: 1000
next table: 1179
cur table: 1162
epoch: 1000
next table: 1171
cur table: 1179
epoch: 1000
next table: 1150
cur table: 1171
epoch: 1000
next table: 1179
cur table: 1150
epoch: 1000
next table: 1168
cur table: 1179
epoch: 1000
next table: 1178
cur table: 1168
epoch: 1000
next table: 1194
cur table: 1178
epoch: 1000
next table: 1170
cur table: 1194
epoch: 1000
next table: 1357
cur table: 1170
epoch: 1000
next table: 1347
cur table: 1357
epoch: 1000
next table: 1461
cur table: 1347
epoch: 1000
next table: 1491
cur table: 1461
epoch: 1000
next table: 1516
cur table: 1491
epoch: 1000
next table: 1492
cur table: 1516
epoch: 1000
next table: 1480
cur table: 1492
epoch: 1000
next table: 1457
cur table: 1480
epoch: 1000
next table: 1503
cur table: 1457
epoch: 1000
next table: 1517
cur table: 1503
epoch: 1000
next table: 1500
cur table: 1517
epoch: 1000
next table: 1498
cur table: 1500
epoch: 1000
next table: 1503
cur table: 1498
epoch: 1000
next table: 1554
cur table: 1503
epoch: 1000
next table: 1521
cur table: 1554
epoch: 1000
next table: 1499
cur table: 1521
epoch: 1000
next table: 1509
cur table: 1499
epoch: 1000
next table: 1566
cur table: 1509
epoch: 1000
next table: 1522
cur table: 1566
epoch: 1000
next table: 1500
cur table: 1522
epoch: 1000
next table: 1566
cur table: 1500
epoch: 1000
next table: 1549
cur table: 1566
epoch: 1000
next table: 1497
cur table: 1549
epoch: 1000
next table: 1495
cur table: 1497
epoch: 1000
next table: 1542
cur table: 1495
epoch: 1000
next table: 1537
cur table: 1542
epoch: 1000
next table: 1527
cur table: 1537
epoch: 1000
next table: 1512
cur table: 1527
epoch: 1000
next table: 1510
cur table: 1512
epoch: 1000
next table: 1568
cur table: 1510
epoch: 1000
next table: 1518
cur table: 1568
epoch: 1000
next table: 1529
cur table: 1518
epoch: 1000
next table: 1551
cur table: 1529
epoch: 1000
next table: 1529
cur table: 1551
epoch: 1000
next table: 1497
cur table: 1529
epoch: 1000
next table: 1541
cur table: 1497
epoch: 1000
next table: 1519
cur table: 1541
epoch: 1000
next table: 1488
cur table: 1519
epoch: 1000
next table: 64405
cur table: 12366
epoch: 1000
next table: 1511
cur table: 1488
epoch: 1000
next table: 1520
cur table: 1511
epoch: 1000
next table: 1522
cur table: 1520
epoch: 1000
next table: 1520
cur table: 1522
epoch: 1000
next table: 1502
cur table: 1520
epoch: 1000
next table: 1537
cur table: 1502
epoch: 1000
next table: 1527
cur table: 1537
epoch: 1000
next table: 1534
cur table: 1527
epoch: 1000
next table: 1514
cur table: 1534
epoch: 1000
next table: 1527
cur table: 1514
epoch: 1000
next table: 1514
cur table: 1527
epoch: 1000
next table: 1573
cur table: 1514
epoch: 1000
next table: 1485
cur table: 1573
epoch: 1000
next table: 1494
cur table: 1485
epoch: 1000
next table: 1552
cur table: 1494
epoch: 1000
next table: 1503
cur table: 1552
epoch: 1000
next table: 1514
cur table: 1503
epoch: 1000
next table: 1519
cur table: 1514
epoch: 1000
next table: 1534
cur table: 1519
epoch: 1000
next table: 1538
cur table: 1534
epoch: 1000
next table: 1513
cur table: 1538
epoch: 1000
next table: 1506
cur table: 1513
epoch: 1000
next table: 1499
cur table: 1506
epoch: 1000
next table: 1504
cur table: 1499
epoch: 1000
next table: 1544
cur table: 1504
epoch: 1000
next table: 1499
cur table: 1544
epoch: 1000
next table: 1512
cur table: 1499
epoch: 1000
next table: 1510
cur table: 1512
epoch: 1000
next table: 1513
cur table: 1510
epoch: 1000
next table: 1512
cur table: 1513
epoch: 1000
next table: 1506
cur table: 1512
epoch: 1000
next table: 1422
cur table: 1506
epoch: 1000
next table: 1401
cur table: 1422
epoch: 1000
next table: 1337
cur table: 1401
epoch: 1000
next table: 1299
cur table: 1337
epoch: 1000
next table: 1284
cur table: 1299
epoch: 1000
next table: 1268
cur table: 1284
epoch: 1000
next table: 1245
cur table: 1268
epoch: 1000
next table: 1270
cur table: 1245
epoch: 1000
next table: 1225
cur table: 1270
epoch: 1000
next table: 1240
cur table: 1225
epoch: 1000
next table: 1204
cur table: 1240
epoch: 1000
next table: 1287
cur table: 1204
epoch: 1000
next table: 1262
cur table: 1287
epoch: 1000
next table: 1211
cur table: 1262
epoch: 1000
next table: 1224
cur table: 1211
epoch: 1000
next table: 1277
cur table: 1224
epoch: 1000
next table: 1236
cur table: 1277
epoch: 1000
next table: 1242
cur table: 1236
epoch: 1000
next table: 1202
cur table: 1242
epoch: 1000
next table: 1209
cur table: 1202
epoch: 1000
next table: 1252
cur table: 1209
epoch: 1000
next table: 1246
cur table: 1252
epoch: 1000
next table: 1242
cur table: 1246
epoch: 1000
next table: 1230
cur table: 1242
epoch: 1000
next table: 1258
cur table: 1230
epoch: 1000
next table: 1229
cur table: 1258
epoch: 1000
next table: 1258
cur table: 1229
epoch: 1000
next table: 1256
cur table: 1258
epoch: 1000
next table: 1248
cur table: 1256
epoch: 1000
next table: 1260
cur table: 1248
epoch: 1000
next table: 1270
cur table: 1260
epoch: 1000
next table: 1226
cur table: 1270
epoch: 1000
next table: 1259
cur table: 1226
epoch: 1000
next table: 1252
cur table: 1259
epoch: 1000
next table: 1215
cur table: 1252
epoch: 1000
next table: 1266
cur table: 1215
epoch: 1000
next table: 1206
cur table: 1266
epoch: 1000
next table: 1276
cur table: 1206
epoch: 1000
next table: 1200
cur table: 1276
epoch: 1000
next table: 1297
cur table: 1200
epoch: 1000
next table: 1209
cur table: 1297
epoch: 1000
next table: 1214
cur table: 1209
epoch: 1000
next table: 1257
cur table: 1214
epoch: 1000
next table: 1231
cur table: 1257
epoch: 1000
next table: 1223
cur table: 1231
epoch: 1000
next table: 1258
cur table: 1223
epoch: 1000
next table: 1260
cur table: 1258
epoch: 1000
next table: 1222
cur table: 1260
epoch: 1000
next table: 1223
cur table: 1222
epoch: 1000
next table: 1252
cur table: 1223
epoch: 1000
next table: 1238
cur table: 1252
epoch: 1000
next table: 1260
cur table: 1238
epoch: 1000
next table: 1239
cur table: 1260
epoch: 1000
next table: 1279
cur table: 1239
epoch: 1000
next table: 1196
cur table: 1279
epoch: 1000
next table: 1264
cur table: 1196
epoch: 1000
next table: 1213
cur table: 1264
epoch: 1000
next table: 1246
cur table: 1213
epoch: 1000
next table: 1271
cur table: 1246
epoch: 1000
next table: 1241
cur table: 1271
epoch: 1000
next table: 1198
cur table: 1241
epoch: 1000
next table: 1279
cur table: 1198
epoch: 1000
next table: 1250
cur table: 1279
epoch: 1000
next table: 1202
cur table: 1250
epoch: 1000
next table: 1221
cur table: 1202
epoch: 1000
next table: 1263
cur table: 1221
epoch: 1000
next table: 1239
cur table: 1263
epoch: 1000
next table: 1175
cur table: 1239
epoch: 1000
next table: 1231
cur table: 1175
epoch: 1000
next table: 1265
cur table: 1231
epoch: 1000
next table: 1227
cur table: 1265
epoch: 1000
next table: 1231
cur table: 1227
epoch: 1000
next table: 1188
cur table: 1231
epoch: 1000
next table: 1239
cur table: 1188
epoch: 1000
next table: 1231
cur table: 1239
epoch: 1000
next table: 1167
cur table: 1231
epoch: 1000
next table: 1180
cur table: 1167
epoch: 1000
next table: 1179
cur table: 1180
epoch: 1000
next table: 1202
cur table: 1179
epoch: 1000
next table: 1147
cur table: 1202
epoch: 1000
next table: 1177
cur table: 1147
epoch: 1000
next table: 1208
cur table: 1177
epoch: 1000
next table: 1192
cur table: 1208
epoch: 1000
next table: 1368
cur table: 1192
epoch: 1000
next table: 1383
cur table: 1368
epoch: 1000
next table: 1466
cur table: 1383
epoch: 1000
next table: 1452
cur table: 1466
epoch: 1000
next table: 1495
cur table: 1452
Heartbeat CPU 0 instructions: 30000001 cycles: 9518912 heartbeat IPC: 3.15687 cumulative IPC: 3.15162 (Simulation time: 0 hr 17 min 20 sec) 
epoch: 1000
next table: 1503
cur table: 1495
epoch: 1000
next table: 1496
cur table: 1503
epoch: 1000
next table: 1455
cur table: 1496
epoch: 1000
next table: 1529
cur table: 1455
epoch: 1000
next table: 1514
cur table: 1529
epoch: 1000
next table: 1493
cur table: 1514
epoch: 1000
next table: 1507
cur table: 1493
epoch: 1000
next table: 1504
cur table: 1507
epoch: 1000
next table: 1553
cur table: 1504
epoch: 1000
next table: 1496
cur table: 1553
epoch: 1000
next table: 1520
cur table: 1496
epoch: 1000
next table: 1552
cur table: 1520
epoch: 1000
next table: 1462
cur table: 1552
epoch: 1000
next table: 1552
cur table: 1462
epoch: 1000
next table: 1481
cur table: 1552
epoch: 1000
next table: 1459
cur table: 1481
epoch: 1000
next table: 1524
cur table: 1459
epoch: 1000
next table: 1492
cur table: 1524
epoch: 1000
next table: 1537
cur table: 1492
epoch: 1000
next table: 1502
cur table: 1537
epoch: 1000
next table: 1525
cur table: 1502
epoch: 1000
next table: 1490
cur table: 1525
epoch: 1000
next table: 1490
cur table: 1490
epoch: 1000
next table: 1456
cur table: 1490
epoch: 1000
next table: 1501
cur table: 1456
epoch: 1000
next table: 1469
cur table: 1501
epoch: 1000
next table: 1474
cur table: 1469
epoch: 1000
next table: 1463
cur table: 1474
epoch: 1000
next table: 1527
cur table: 1463
epoch: 1000
next table: 1474
cur table: 1527
epoch: 1000
next table: 1497
cur table: 1474
epoch: 1000
next table: 47747
cur table: 64405
epoch: 1000
next table: 1499
cur table: 1497
epoch: 1000
next table: 1482
cur table: 1499
epoch: 1000
next table: 1502
cur table: 1482
epoch: 1000
next table: 1474
cur table: 1502
epoch: 1000
next table: 1498
cur table: 1474
epoch: 1000
next table: 1486
cur table: 1498
epoch: 1000
next table: 1506
cur table: 1486
epoch: 1000
next table: 1507
cur table: 1506
epoch: 1000
next table: 1509
cur table: 1507
epoch: 1000
next table: 1467
cur table: 1509
epoch: 1000
next table: 1495
cur table: 1467
epoch: 1000
next table: 1537
cur table: 1495
epoch: 1000
next table: 1508
cur table: 1537
epoch: 1000
next table: 1533
cur table: 1508
epoch: 1000
next table: 1513
cur table: 1533
epoch: 1000
next table: 1534
cur table: 1513
epoch: 1000
next table: 1482
cur table: 1534
epoch: 1000
next table: 1517
cur table: 1482
epoch: 1000
next table: 1487
cur table: 1517
epoch: 1000
next table: 1520
cur table: 1487
epoch: 1000
next table: 1482
cur table: 1520
epoch: 1000
next table: 1527
cur table: 1482
epoch: 1000
next table: 1511
cur table: 1527
epoch: 1000
next table: 1479
cur table: 1511
epoch: 1000
next table: 1493
cur table: 1479
epoch: 1000
next table: 1483
cur table: 1493
epoch: 1000
next table: 1554
cur table: 1483
epoch: 1000
next table: 1494
cur table: 1554
epoch: 1000
next table: 1518
cur table: 1494
epoch: 1000
next table: 1499
cur table: 1518
epoch: 1000
next table: 1544
cur table: 1499
epoch: 1000
next table: 1469
cur table: 1544
epoch: 1000
next table: 1520
cur table: 1469
epoch: 1000
next table: 1500
cur table: 1520
epoch: 1000
next table: 1513
cur table: 1500
epoch: 1000
next table: 1498
cur table: 1513
epoch: 1000
next table: 1481
cur table: 1498
epoch: 1000
next table: 1485
cur table: 1481
epoch: 1000
next table: 1475
cur table: 1485
epoch: 1000
next table: 1479
cur table: 1475
epoch: 1000
next table: 1545
cur table: 1479
epoch: 1000
next table: 1452
cur table: 1545
epoch: 1000
next table: 1480
cur table: 1452
epoch: 1000
next table: 1456
cur table: 1480
epoch: 1000
next table: 1523
cur table: 1456
epoch: 1000
next table: 1465
cur table: 1523
epoch: 1000
next table: 1503
cur table: 1465
epoch: 1000
next table: 21590
cur table: 47747
epoch: 1000
next table: 1535
cur table: 1503
epoch: 1000
next table: 1490
cur table: 1535
epoch: 1000
next table: 1513
cur table: 1490
epoch: 1000
next table: 1556
cur table: 1513
epoch: 1000
next table: 1454
cur table: 1556
epoch: 1000
next table: 1482
cur table: 1454
epoch: 1000
next table: 1474
cur table: 1482
epoch: 1000
next table: 1543
cur table: 1474
epoch: 1000
next table: 1514
cur table: 1543
epoch: 1000
next table: 1492
cur table: 1514
epoch: 1000
next table: 1535
cur table: 1492
epoch: 1000
next table: 1478
cur table: 1535
epoch: 1000
next table: 1509
cur table: 1478
epoch: 1000
next table: 1495
cur table: 1509
epoch: 1000
next table: 1516
cur table: 1495
epoch: 1000
next table: 1555
cur table: 1516
epoch: 1000
next table: 1467
cur table: 1555
epoch: 1000
next table: 1473
cur table: 1467
epoch: 1000
next table: 1494
cur table: 1473
epoch: 1000
next table: 1496
cur table: 1494
epoch: 1000
next table: 1504
cur table: 1496
epoch: 1000
next table: 1529
cur table: 1504
epoch: 1000
next table: 1491
cur table: 1529
epoch: 1000
next table: 1523
cur table: 1491
epoch: 1000
next table: 1483
cur table: 1523
epoch: 1000
next table: 1496
cur table: 1483
epoch: 1000
next table: 1485
cur table: 1496
epoch: 1000
next table: 1536
cur table: 1485
epoch: 1000
next table: 1522
cur table: 1536
epoch: 1000
next table: 1501
cur table: 1522
epoch: 1000
next table: 1500
cur table: 1501
epoch: 1000
next table: 1472
cur table: 1500
epoch: 1000
next table: 1504
cur table: 1472
epoch: 1000
next table: 1468
cur table: 1504
epoch: 1000
next table: 1362
cur table: 1468
epoch: 1000
next table: 1317
cur table: 1362
epoch: 1000
next table: 1301
cur table: 1317
epoch: 1000
next table: 1222
cur table: 1301
epoch: 1000
next table: 1282
cur table: 1222
epoch: 1000
next table: 1254
cur table: 1282
epoch: 1000
next table: 1264
cur table: 1254
epoch: 1000
next table: 1280
cur table: 1264
epoch: 1000
next table: 1259
cur table: 1280
epoch: 1000
next table: 1256
cur table: 1259
epoch: 1000
next table: 1291
cur table: 1256
epoch: 1000
next table: 1269
cur table: 1291
epoch: 1000
next table: 1264
cur table: 1269
epoch: 1000
next table: 1280
cur table: 1264
epoch: 1000
next table: 1286
cur table: 1280
epoch: 1000
next table: 1288
cur table: 1286
epoch: 1000
next table: 1234
cur table: 1288
epoch: 1000
next table: 1211
cur table: 1234
epoch: 1000
next table: 1297
cur table: 1211
epoch: 1000
next table: 1202
cur table: 1297
epoch: 1000
next table: 1259
cur table: 1202
epoch: 1000
next table: 1229
cur table: 1259
epoch: 1000
next table: 1250
cur table: 1229
epoch: 1000
next table: 1239
cur table: 1250
epoch: 1000
next table: 1242
cur table: 1239
epoch: 1000
next table: 1262
cur table: 1242
epoch: 1000
next table: 1245
cur table: 1262
epoch: 1000
next table: 1235
cur table: 1245
epoch: 1000
next table: 1245
cur table: 1235
epoch: 1000
next table: 1241
cur table: 1245
epoch: 1000
next table: 1242
cur table: 1241
epoch: 1000
next table: 1264
cur table: 1242
epoch: 1000
next table: 1241
cur table: 1264
epoch: 1000
next table: 1256
cur table: 1241
epoch: 1000
next table: 1236
cur table: 1256
epoch: 1000
next table: 1261
cur table: 1236
epoch: 1000
next table: 1261
cur table: 1261
epoch: 1000
next table: 1217
cur table: 1261
epoch: 1000
next table: 1274
cur table: 1217
epoch: 1000
next table: 1257
cur table: 1274
epoch: 1000
next table: 1203
cur table: 1257
epoch: 1000
next table: 1329
cur table: 1203
epoch: 1000
next table: 1251
cur table: 1329
epoch: 1000
next table: 1268
cur table: 1251
epoch: 1000
next table: 1267
cur table: 1268
epoch: 1000
next table: 1265
cur table: 1267
epoch: 1000
next table: 1246
cur table: 1265
epoch: 1000
next table: 1249
cur table: 1246
epoch: 1000
next table: 1251
cur table: 1249
epoch: 1000
next table: 1247
cur table: 1251
epoch: 1000
next table: 1267
cur table: 1247
epoch: 1000
next table: 1278
cur table: 1267
epoch: 1000
next table: 1279
cur table: 1278
epoch: 1000
next table: 1249
cur table: 1279
epoch: 1000
next table: 1246
cur table: 1249
epoch: 1000
next table: 1289
cur table: 1246
epoch: 1000
next table: 1241
cur table: 1289
epoch: 1000
next table: 1256
cur table: 1241
epoch: 1000
next table: 1217
cur table: 1256
epoch: 1000
next table: 1266
cur table: 1217
epoch: 1000
next table: 1250
cur table: 1266
epoch: 1000
next table: 1235
cur table: 1250
epoch: 1000
next table: 1197
cur table: 1235
epoch: 1000
next table: 1270
cur table: 1197
epoch: 1000
next table: 1239
cur table: 1270
epoch: 1000
next table: 1215
cur table: 1239
epoch: 1000
next table: 1279
cur table: 1215
epoch: 1000
next table: 1258
cur table: 1279
epoch: 1000
next table: 1262
cur table: 1258
epoch: 1000
next table: 1252
cur table: 1262
epoch: 1000
next table: 1193
cur table: 1252
epoch: 1000
next table: 1232
cur table: 1193
epoch: 1000
next table: 1200
cur table: 1232
epoch: 1000
next table: 1189
cur table: 1200
epoch: 1000
next table: 1154
cur table: 1189
epoch: 1000
next table: 1187
cur table: 1154
epoch: 1000
next table: 1158
cur table: 1187
epoch: 1000
next table: 1165
cur table: 1158
epoch: 1000
next table: 1187
cur table: 1165
epoch: 1000
next table: 1186
cur table: 1187
epoch: 1000
next table: 1457
cur table: 1186
epoch: 1000
next table: 1423
cur table: 1457
epoch: 1000
next table: 1443
cur table: 1423
epoch: 1000
next table: 1467
cur table: 1443
epoch: 1000
next table: 1490
cur table: 1467
epoch: 1000
next table: 1472
cur table: 1490
epoch: 1000
next table: 1493
cur table: 1472
epoch: 1000
next table: 1517
cur table: 1493
epoch: 1000
next table: 1478
cur table: 1517
epoch: 1000
next table: 1464
cur table: 1478
epoch: 1000
next table: 1503
cur table: 1464
epoch: 1000
next table: 1477
cur table: 1503
epoch: 1000
next table: 1506
cur table: 1477
epoch: 1000
next table: 38348
cur table: 21590
epoch: 1000
next table: 1610
cur table: 1506
epoch: 1000
next table: 1527
cur table: 1610
epoch: 1000
next table: 1453
cur table: 1527
epoch: 1000
next table: 1519
cur table: 1453
epoch: 1000
next table: 1503
cur table: 1519
epoch: 1000
next table: 1513
cur table: 1503
epoch: 1000
next table: 1481
cur table: 1513
epoch: 1000
next table: 1530
cur table: 1481
epoch: 1000
next table: 1533
cur table: 1530
epoch: 1000
next table: 1490
cur table: 1533
epoch: 1000
next table: 1571
cur table: 1490
epoch: 1000
next table: 1523
cur table: 1571
epoch: 1000
next table: 1518
cur table: 1523
epoch: 1000
next table: 1549
cur table: 1518
epoch: 1000
next table: 1538
cur table: 1549
epoch: 1000
next table: 1533
cur table: 1538
epoch: 1000
next table: 1569
cur table: 1533
epoch: 1000
next table: 1521
cur table: 1569
epoch: 1000
next table: 1533
cur table: 1521
epoch: 1000
next table: 1601
cur table: 1533
epoch: 1000
next table: 1518
cur table: 1601
epoch: 1000
next table: 1522
cur table: 1518
epoch: 1000
next table: 1568
cur table: 1522
epoch: 1000
next table: 1511
cur table: 1568
epoch: 1000
next table: 1501
cur table: 1511
epoch: 1000
next table: 1503
cur table: 1501
epoch: 1000
next table: 1511
cur table: 1503
epoch: 1000
next table: 1526
cur table: 1511
epoch: 1000
next table: 1477
cur table: 1526
epoch: 1000
next table: 1509
cur table: 1477
epoch: 1000
next table: 1507
cur table: 1509
epoch: 1000
next table: 1495
cur table: 1507
epoch: 1000
next table: 1518
cur table: 1495
epoch: 1000
next table: 1463
cur table: 1518
epoch: 1000
next table: 1481
cur table: 1463
epoch: 1000
next table: 1510
cur table: 1481
Heartbeat CPU 0 instructions: 40000000 cycles: 12667898 heartbeat IPC: 3.17563 cumulative IPC: 3.15759 (Simulation time: 0 hr 22 min 6 sec) 
epoch: 1000
next table: 1486
cur table: 1510
epoch: 1000
next table: 1509
cur table: 1486
epoch: 1000
next table: 1485
cur table: 1509
epoch: 1000
next table: 1504
cur table: 1485
epoch: 1000
next table: 1562
cur table: 1504
epoch: 1000
next table: 1482
cur table: 1562
epoch: 1000
next table: 1517
cur table: 1482
epoch: 1000
next table: 1494
cur table: 1517
epoch: 1000
next table: 1515
cur table: 1494
epoch: 1000
next table: 1545
cur table: 1515
epoch: 1000
next table: 1510
cur table: 1545
epoch: 1000
next table: 1530
cur table: 1510
epoch: 1000
next table: 1496
cur table: 1530
epoch: 1000
next table: 1510
cur table: 1496
epoch: 1000
next table: 1567
cur table: 1510
epoch: 1000
next table: 1504
cur table: 1567
epoch: 1000
next table: 1533
cur table: 1504
epoch: 1000
next table: 25107
cur table: 38348
epoch: 1000
next table: 1497
cur table: 1533
epoch: 1000
next table: 1509
cur table: 1497
epoch: 1000
next table: 1541
cur table: 1509
epoch: 1000
next table: 1497
cur table: 1541
epoch: 1000
next table: 1538
cur table: 1497
epoch: 1000
next table: 1510
cur table: 1538
epoch: 1000
next table: 1495
cur table: 1510
epoch: 1000
next table: 1569
cur table: 1495
epoch: 1000
next table: 1513
cur table: 1569
epoch: 1000
next table: 1522
cur table: 1513
epoch: 1000
next table: 1536
cur table: 1522
epoch: 1000
next table: 1527
cur table: 1536
epoch: 1000
next table: 1506
cur table: 1527
epoch: 1000
next table: 1554
cur table: 1506
epoch: 1000
next table: 1502
cur table: 1554
epoch: 1000
next table: 1517
cur table: 1502
epoch: 1000
next table: 1494
cur table: 1517
epoch: 1000
next table: 1513
cur table: 1494
epoch: 1000
next table: 1553
cur table: 1513
epoch: 1000
next table: 1537
cur table: 1553
epoch: 1000
next table: 1505
cur table: 1537
epoch: 1000
next table: 1517
cur table: 1505
epoch: 1000
next table: 1511
cur table: 1517
epoch: 1000
next table: 1521
cur table: 1511
epoch: 1000
next table: 1530
cur table: 1521
epoch: 1000
next table: 1492
cur table: 1530
epoch: 1000
next table: 1511
cur table: 1492
epoch: 1000
next table: 1497
cur table: 1511
epoch: 1000
next table: 1560
cur table: 1497
epoch: 1000
next table: 1531
cur table: 1560
epoch: 1000
next table: 1511
cur table: 1531
epoch: 1000
next table: 1493
cur table: 1511
epoch: 1000
next table: 1451
cur table: 1493
epoch: 1000
next table: 1511
cur table: 1451
epoch: 1000
next table: 1477
cur table: 1511
epoch: 1000
next table: 1362
cur table: 1477
epoch: 1000
next table: 1331
cur table: 1362
epoch: 1000
next table: 1272
cur table: 1331
epoch: 1000
next table: 1251
cur table: 1272
epoch: 1000
next table: 1238
cur table: 1251
epoch: 1000
next table: 1282
cur table: 1238
epoch: 1000
next table: 1243
cur table: 1282
epoch: 1000
next table: 1291
cur table: 1243
epoch: 1000
next table: 1247
cur table: 1291
epoch: 1000
next table: 1261
cur table: 1247
epoch: 1000
next table: 1279
cur table: 1261
epoch: 1000
next table: 1259
cur table: 1279
epoch: 1000
next table: 1247
cur table: 1259
epoch: 1000
next table: 1254
cur table: 1247
epoch: 1000
next table: 1237
cur table: 1254
epoch: 1000
next table: 1283
cur table: 1237
epoch: 1000
next table: 1269
cur table: 1283
epoch: 1000
next table: 1211
cur table: 1269
epoch: 1000
next table: 1269
cur table: 1211
epoch: 1000
next table: 1229
cur table: 1269
epoch: 1000
next table: 1230
cur table: 1229
epoch: 1000
next table: 1223
cur table: 1230
epoch: 1000
next table: 1259
cur table: 1223
epoch: 1000
next table: 1260
cur table: 1259
epoch: 1000
next table: 1262
cur table: 1260
epoch: 1000
next table: 1252
cur table: 1262
epoch: 1000
next table: 1253
cur table: 1252
epoch: 1000
next table: 1220
cur table: 1253
epoch: 1000
next table: 1258
cur table: 1220
epoch: 1000
next table: 1256
cur table: 1258
epoch: 1000
next table: 1238
cur table: 1256
epoch: 1000
next table: 1263
cur table: 1238
epoch: 1000
next table: 1203
cur table: 1263
epoch: 1000
next table: 1287
cur table: 1203
epoch: 1000
next table: 1211
cur table: 1287
epoch: 1000
next table: 1294
cur table: 1211
epoch: 1000
next table: 1228
cur table: 1294
epoch: 1000
next table: 1228
cur table: 1228
epoch: 1000
next table: 1269
cur table: 1228
epoch: 1000
next table: 1259
cur table: 1269
epoch: 1000
next table: 1247
cur table: 1259
epoch: 1000
next table: 1300
cur table: 1247
epoch: 1000
next table: 1244
cur table: 1300
epoch: 1000
next table: 1236
cur table: 1244
epoch: 1000
next table: 1223
cur table: 1236
epoch: 1000
next table: 1271
cur table: 1223
epoch: 1000
next table: 1237
cur table: 1271
epoch: 1000
next table: 1262
cur table: 1237
epoch: 1000
next table: 1240
cur table: 1262
epoch: 1000
next table: 1225
cur table: 1240
epoch: 1000
next table: 1268
cur table: 1225
epoch: 1000
next table: 1277
cur table: 1268
epoch: 1000
next table: 1246
cur table: 1277
epoch: 1000
next table: 1267
cur table: 1246
epoch: 1000
next table: 1278
cur table: 1267
epoch: 1000
next table: 1243
cur table: 1278
epoch: 1000
next table: 1249
cur table: 1243
epoch: 1000
next table: 1282
cur table: 1249
epoch: 1000
next table: 1229
cur table: 1282
epoch: 1000
next table: 1281
cur table: 1229
epoch: 1000
next table: 1256
cur table: 1281
epoch: 1000
next table: 1261
cur table: 1256
epoch: 1000
next table: 1206
cur table: 1261
epoch: 1000
next table: 1283
cur table: 1206
epoch: 1000
next table: 1281
cur table: 1283
epoch: 1000
next table: 1288
cur table: 1281
epoch: 1000
next table: 1256
cur table: 1288
epoch: 1000
next table: 1207
cur table: 1256
epoch: 1000
next table: 1273
cur table: 1207
epoch: 1000
next table: 1274
cur table: 1273
epoch: 1000
next table: 1258
cur table: 1274
epoch: 1000
next table: 1179
cur table: 1258
epoch: 1000
next table: 1169
cur table: 1179
epoch: 1000
next table: 1150
cur table: 1169
epoch: 1000
next table: 1178
cur table: 1150
epoch: 1000
next table: 1174
cur table: 1178
epoch: 1000
next table: 1173
cur table: 1174
epoch: 1000
next table: 1186
cur table: 1173
epoch: 1000
next table: 1165
cur table: 1186
epoch: 1000
next table: 1321
cur table: 1165
epoch: 1000
next table: 1350
cur table: 1321
epoch: 1000
next table: 1384
cur table: 1350
epoch: 1000
next table: 1342
cur table: 1384
epoch: 1000
next table: 1333
cur table: 1342
epoch: 1000
next table: 1262
cur table: 1333
epoch: 1000
next table: 1318
cur table: 1262
epoch: 1000
next table: 1305
cur table: 1318
epoch: 1000
next table: 1344
cur table: 1305
epoch: 1000
next table: 1326
cur table: 1344
epoch: 1000
next table: 1313
cur table: 1326
epoch: 1000
next table: 1353
cur table: 1313
epoch: 1000
next table: 1374
cur table: 1353
epoch: 1000
next table: 1326
cur table: 1374
epoch: 1000
next table: 1377
cur table: 1326
epoch: 1000
next table: 1346
cur table: 1377
epoch: 1000
next table: 1343
cur table: 1346
epoch: 1000
next table: 1374
cur table: 1343
epoch: 1000
next table: 1352
cur table: 1374
epoch: 1000
next table: 1331
cur table: 1352
epoch: 1000
next table: 1324
cur table: 1331
epoch: 1000
next table: 1336
cur table: 1324
epoch: 1000
next table: 1291
cur table: 1336
epoch: 1000
next table: 1325
cur table: 1291
epoch: 1000
next table: 1277
cur table: 1325
epoch: 1000
next table: 1262
cur table: 1277
epoch: 1000
next table: 1285
cur table: 1262
epoch: 1000
next table: 1321
cur table: 1285
epoch: 1000
next table: 1348
cur table: 1321
epoch: 1000
next table: 1358
cur table: 1348
epoch: 1000
next table: 1351
cur table: 1358
epoch: 1000
next table: 1283
cur table: 1351
epoch: 1000
next table: 1344
cur table: 1283
epoch: 1000
next table: 1374
cur table: 1344
epoch: 1000
next table: 1357
cur table: 1374
epoch: 1000
next table: 1345
cur table: 1357
epoch: 1000
next table: 1310
cur table: 1345
epoch: 1000
next table: 1329
cur table: 1310
epoch: 1000
next table: 1307
cur table: 1329
epoch: 1000
next table: 1335
cur table: 1307
epoch: 1000
next table: 1353
cur table: 1335
epoch: 1000
next table: 1352
cur table: 1353
epoch: 1000
next table: 1350
cur table: 1352
epoch: 1000
next table: 1337
cur table: 1350
epoch: 1000
next table: 1322
cur table: 1337
epoch: 1000
next table: 1353
cur table: 1322
epoch: 1000
next table: 1322
cur table: 1353
epoch: 1000
next table: 1336
cur table: 1322
epoch: 1000
next table: 1358
cur table: 1336
epoch: 1000
next table: 1347
cur table: 1358
epoch: 1000
next table: 1326
cur table: 1347
epoch: 1000
next table: 1356
cur table: 1326
epoch: 1000
next table: 1289
cur table: 1356
epoch: 1000
next table: 1254
cur table: 1289
epoch: 1000
next table: 1273
cur table: 1254
epoch: 1000
next table: 1274
cur table: 1273
epoch: 1000
next table: 1289
cur table: 1274
epoch: 1000
next table: 1202
cur table: 1289
epoch: 1000
next table: 1265
cur table: 1202
epoch: 1000
next table: 1269
cur table: 1265
epoch: 1000
next table: 1259
cur table: 1269
epoch: 1000
next table: 1215
cur table: 1259
epoch: 1000
next table: 1209
cur table: 1215
epoch: 1000
next table: 1180
cur table: 1209
epoch: 1000
next table: 1172
cur table: 1180
epoch: 1000
next table: 1181
cur table: 1172
epoch: 1000
next table: 1164
cur table: 1181
epoch: 1000
next table: 1173
cur table: 1164
epoch: 1000
next table: 1184
cur table: 1173
epoch: 1000
next table: 1183
cur table: 1184
epoch: 1000
next table: 1193
cur table: 1183
epoch: 1000
next table: 1158
cur table: 1193
epoch: 1000
next table: 1186
cur table: 1158
epoch: 1000
next table: 1199
cur table: 1186
epoch: 1000
next table: 1177
cur table: 1199
epoch: 1000
next table: 1184
cur table: 1177
epoch: 1000
next table: 1177
cur table: 1184
epoch: 1000
next table: 1170
cur table: 1177
epoch: 1000
next table: 1155
cur table: 1170
epoch: 1000
next table: 1177
cur table: 1155
epoch: 1000
next table: 1186
cur table: 1177
epoch: 1000
next table: 1172
cur table: 1186
epoch: 1000
next table: 1184
cur table: 1172
epoch: 1000
next table: 1173
cur table: 1184
epoch: 1000
next table: 1202
cur table: 1173
epoch: 1000
next table: 1170
cur table: 1202
epoch: 1000
next table: 1209
cur table: 1170
epoch: 1000
next table: 1175
cur table: 1209
epoch: 1000
next table: 1199
cur table: 1175
epoch: 1000
next table: 1190
cur table: 1199
epoch: 1000
next table: 1178
cur table: 1190
epoch: 1000
next table: 1172
cur table: 1178
epoch: 1000
next table: 1180
cur table: 1172
epoch: 1000
next table: 1182
cur table: 1180
epoch: 1000
next table: 1193
cur table: 1182
epoch: 1000
next table: 1195
cur table: 1193
epoch: 1000
next table: 1215
cur table: 1195
epoch: 1000
next table: 1182
cur table: 1215
epoch: 1000
next table: 1172
cur table: 1182
epoch: 1000
next table: 1166
cur table: 1172
epoch: 1000
next table: 1185
cur table: 1166
epoch: 1000
next table: 1172
cur table: 1185
epoch: 1000
next table: 1154
cur table: 1172
epoch: 1000
next table: 1174
cur table: 1154
epoch: 1000
next table: 1174
cur table: 1174
epoch: 1000
next table: 1175
cur table: 1174
epoch: 1000
next table: 1179
cur table: 1175
epoch: 1000
next table: 1209
cur table: 1179
epoch: 1000
next table: 1184
cur table: 1209
epoch: 1000
next table: 1184
cur table: 1184
epoch: 1000
next table: 1164
cur table: 1184
epoch: 1000
next table: 1172
cur table: 1164
epoch: 1000
next table: 1190
cur table: 1172
epoch: 1000
next table: 1189
cur table: 1190
epoch: 1000
next table: 1173
cur table: 1189
epoch: 1000
next table: 1173
cur table: 1173
epoch: 1000
next table: 1180
cur table: 1173
epoch: 1000
next table: 1176
cur table: 1180
epoch: 1000
next table: 1173
cur table: 1176
epoch: 1000
next table: 1209
cur table: 1173
epoch: 1000
next table: 1166
cur table: 1209
epoch: 1000
next table: 1198
cur table: 1166
epoch: 1000
next table: 1178
cur table: 1198
epoch: 1000
next table: 1174
cur table: 1178
epoch: 1000
next table: 1161
cur table: 1174
epoch: 1000
next table: 1183
cur table: 1161
epoch: 1000
next table: 1156
cur table: 1183
epoch: 1000
next table: 1176
cur table: 1156
epoch: 1000
next table: 1194
cur table: 1176
epoch: 1000
next table: 1153
cur table: 1194
epoch: 1000
next table: 1195
cur table: 1153
epoch: 1000
next table: 1154
cur table: 1195
epoch: 1000
next table: 1313
cur table: 1154
epoch: 1000
next table: 1311
cur table: 1313
epoch: 1000
next table: 1410
cur table: 1311
epoch: 1000
next table: 1454
cur table: 1410
epoch: 1000
next table: 1474
cur table: 1454
epoch: 1000
next table: 1453
cur table: 1474
epoch: 1000
next table: 1490
cur table: 1453
epoch: 1000
next table: 1485
cur table: 1490
epoch: 1000
next table: 1453
cur table: 1485
epoch: 1000
next table: 1471
cur table: 1453
epoch: 1000
next table: 1518
cur table: 1471
epoch: 1000
next table: 1483
cur table: 1518
epoch: 1000
next table: 1489
cur table: 1483
epoch: 1000
next table: 1523
cur table: 1489
epoch: 1000
next table: 1503
cur table: 1523
epoch: 1000
next table: 1489
cur table: 1503
epoch: 1000
next table: 1464
cur table: 1489
epoch: 1000
next table: 1507
cur table: 1464
epoch: 1000
next table: 1500
cur table: 1507
epoch: 1000
next table: 1497
cur table: 1500
epoch: 1000
next table: 1521
cur table: 1497
epoch: 1000
next table: 1505
cur table: 1521
epoch: 1000
next table: 1532
cur table: 1505
epoch: 1000
next table: 1493
cur table: 1532
epoch: 1000
next table: 1491
cur table: 1493
epoch: 1000
next table: 1526
cur table: 1491
epoch: 1000
next table: 1441
cur table: 1526
epoch: 1000
next table: 1474
cur table: 1441
epoch: 1000
next table: 1485
cur table: 1474
epoch: 1000
next table: 1516
cur table: 1485
epoch: 1000
next table: 1536
cur table: 1516
epoch: 1000
next table: 1495
cur table: 1536
epoch: 1000
next table: 1488
cur table: 1495
epoch: 1000
next table: 1483
cur table: 1488
epoch: 1000
next table: 1495
cur table: 1483
epoch: 1000
next table: 1539
cur table: 1495
epoch: 1000
next table: 1487
cur table: 1539
epoch: 1000
next table: 1472
cur table: 1487
epoch: 1000
next table: 1523
cur table: 1472
epoch: 1000
next table: 1518
cur table: 1523
epoch: 1000
next table: 1474
cur table: 1518
epoch: 1000
next table: 1606
cur table: 1474
epoch: 1000
next table: 1517
cur table: 1606
epoch: 1000
next table: 1457
cur table: 1517
epoch: 1000
next table: 1497
cur table: 1457
epoch: 1000
next table: 1457
cur table: 1497
epoch: 1000
next table: 1490
cur table: 1457
epoch: 1000
next table: 1479
cur table: 1490
epoch: 1000
next table: 1456
cur table: 1479
epoch: 1000
next table: 1526
cur table: 1456
epoch: 1000
next table: 1482
cur table: 1526
epoch: 1000
next table: 83666
cur table: 25107
epoch: 1000
next table: 1535
cur table: 1482
epoch: 1000
next table: 1511
cur table: 1535
epoch: 1000
next table: 1501
cur table: 1511
epoch: 1000
next table: 1492
cur table: 1501
epoch: 1000
next table: 1500
cur table: 1492
epoch: 1000
next table: 1488
cur table: 1500
epoch: 1000
next table: 1507
cur table: 1488
epoch: 1000
next table: 1534
cur table: 1507
epoch: 1000
next table: 1489
cur table: 1534
epoch: 1000
next table: 1493
cur table: 1489
epoch: 1000
next table: 1488
cur table: 1493
epoch: 1000
next table: 1497
cur table: 1488
epoch: 1000
next table: 1466
cur table: 1497
epoch: 1000
next table: 1564
cur table: 1466
epoch: 1000
next table: 1518
cur table: 1564
epoch: 1000
next table: 1508
cur table: 1518
epoch: 1000
next table: 1496
cur table: 1508
epoch: 1000
next table: 1523
cur table: 1496
epoch: 1000
next table: 1502
cur table: 1523
epoch: 1000
next table: 1472
cur table: 1502
epoch: 1000
next table: 1480
cur table: 1472
epoch: 1000
next table: 1537
cur table: 1480
epoch: 1000
next table: 1513
cur table: 1537
epoch: 1000
next table: 1564
cur table: 1513
epoch: 1000
next table: 1542
cur table: 1564
epoch: 1000
next table: 1551
cur table: 1542
epoch: 1000
next table: 1503
cur table: 1551
epoch: 1000
next table: 1550
cur table: 1503
epoch: 1000
next table: 1488
cur table: 1550
epoch: 1000
next table: 1499
cur table: 1488
epoch: 1000
next table: 1563
cur table: 1499
epoch: 1000
next table: 1499
cur table: 1563
epoch: 1000
next table: 1531
cur table: 1499
epoch: 1000
next table: 1518
cur table: 1531
epoch: 1000
next table: 1500
cur table: 1518
epoch: 1000
next table: 1548
cur table: 1500
epoch: 1000
next table: 1486
cur table: 1548
epoch: 1000
next table: 1501
cur table: 1486
Heartbeat CPU 0 instructions: 50000000 cycles: 15842835 heartbeat IPC: 3.14967 cumulative IPC: 3.156 (Simulation time: 0 hr 26 min 20 sec) 

Warmup complete CPU 0 instructions: 50000004 cycles: 15842836 (Simulation time: 0 hr 26 min 20 sec) 

epoch: 1000
next table: 1468
cur table: 1546
epoch: 1000
next table: 1480
cur table: 1468
epoch: 1000
next table: 1508
cur table: 1480
epoch: 1000
next table: 1471
cur table: 1508
epoch: 1000
next table: 1491
cur table: 1471
epoch: 1000
next table: 1522
cur table: 1491
epoch: 1000
next table: 1493
cur table: 1522
epoch: 1000
next table: 1477
cur table: 1493
epoch: 1000
next table: 1505
cur table: 1477
epoch: 1000
next table: 1471
cur table: 1505
epoch: 1000
next table: 1501
cur table: 1471
epoch: 1000
next table: 1470
cur table: 1501
epoch: 1000
next table: 1537
cur table: 1470
epoch: 1000
next table: 1497
cur table: 1537
epoch: 1000
next table: 1487
cur table: 1497
epoch: 1000
next table: 1538
cur table: 1487
epoch: 1000
next table: 1490
cur table: 1538
epoch: 1000
next table: 1491
cur table: 1490
epoch: 1000
next table: 1479
cur table: 1491
epoch: 1000
next table: 1526
cur table: 1479
epoch: 1000
next table: 1508
cur table: 1526
epoch: 1000
next table: 1502
cur table: 1508
epoch: 1000
next table: 1483
cur table: 1502
epoch: 1000
next table: 1517
cur table: 1483
epoch: 1000
next table: 1484
cur table: 1517
epoch: 1000
next table: 1498
cur table: 1484
epoch: 1000
next table: 1491
[...]
next table: 1493
cur table: 1540
epoch: 1000
next table: 7581
cur table: 12077
epoch: 1000
next table: 1513
cur table: 1493
epoch: 1000
next table: 1505
cur table: 1513
epoch: 1000
next table: 1545
cur table: 1505
epoch: 1000
next table: 1491
cur table: 1545
epoch: 1000
next table: 1536
cur table: 1491
epoch: 1000
next table: 1567
cur table: 1536
epoch: 1000
next table: 1500
cur table: 1567
epoch: 1000
next table: 1542
cur table: 1500
epoch: 1000
next table: 1531
cur table: 1542
epoch: 1000
next table: 1545
cur table: 1531
epoch: 1000
next table: 1569
cur table: 1545
epoch: 1000
next table: 5941
cur table: 7581
epoch: 1000
next table: 1561
cur table: 1569
epoch: 1000
next table: 1546
cur table: 1561
epoch: 1000
next table: 1516
cur table: 1546
epoch: 1000
next table: 1488
cur table: 1516
epoch: 1000
next table: 1514
cur table: 1488
epoch: 1000
next table: 1542
cur table: 1514
epoch: 1000
next table: 1512
cur table: 1542
epoch: 1000
next table: 1518
cur table: 1512
epoch: 1000
next table: 1495
cur table: 1518
epoch: 1000
next table: 5457
cur table: 5941
epoch: 1000
next table: 1502
cur table: 1495
epoch: 1000
next table: 1556
cur table: 1502
epoch: 1000
next table: 1534
cur table: 1556
epoch: 1000
next table: 1522
cur table: 1534
epoch: 1000
next table: 1494
cur table: 1522
epoch: 1000
next table: 1477
cur table: 1494
epoch: 1000
next table: 1531
cur table: 1477
epoch: 1000
next table: 1475
cur table: 1531
epoch: 1000
next table: 1513
cur table: 1475
epoch: 1000
next table: 5435
cur table: 5457
epoch: 1000
next table: 1526
cur table: 1513
Heartbeat CPU 0 instructions: 100000000 cycles: 146893675 heartbeat IPC: 0.425959 cumulative IPC: 0.381531 (Simulation time: 1 hr 6 min 10 sec) 
Finished CPU 0 instructions: 50000002 cycles: 131050857 cumulative IPC: 0.381531 (Simulation time: 1 hr 6 min 10 sec) 

ChampSim completed all CPUs

Region of Interest Statistics

CPU 0 cumulative IPC: 0.381531 instructions: 50000002 cycles: 131050857
ITLB TOTAL     ACCESS:    8180791  HIT:    8180791  MISS:          0  HIT %:        100  MISS %:          0   MPKI: 0
ITLB LOAD TRANSLATION ACCESS:    8180791  HIT:    8180791  MISS:          0  HIT %:        100  MISS %:          0   MPKI: 0
ITLB PREFETCH  REQUESTED:          0  ISSUED:          0  USEFUL:          0  USELESS:          0
ITLB USEFUL LOAD PREFETCHES:          0 PREFETCH ISSUED TO LOWER LEVEL:          0  ACCURACY: -nan
ITLB TIMELY PREFETCHES:          0 LATE PREFETCHES: 0 DROPPED PREFETCHES: 0
ITLB PREFETCHES SAME FILL-ORIGIN LEVEL: 0 DIFFERENT FILL-ORIGIN LEVEL: 0
ITLB AVERAGE MISS LATENCY: -nan cycles
ITLB RQ	ACCESS:   10722153	FORWARD:          0	MERGED:    2541363	TO_CACHE:    8180790

Revised Interactions: positive negative neutral
ITLB_interactions 0 0 0 -nan -nan -nan
DTLB TOTAL     ACCESS:   13402533  HIT:   13279522  MISS:     123011  HIT %:    99.0822  MISS %:   0.917819   MPKI: 2.46022
DTLB LOAD TRANSLATION ACCESS:   13402533  HIT:   13279522  MISS:     123011  HIT %:    99.0822  MISS %:   0.917819   MPKI: 2.46022
DTLB PREFETCH  REQUESTED:          0  ISSUED:          0  USEFUL:          0  USELESS:          0
DTLB USEFUL LOAD PREFETCHES:          0 PREFETCH ISSUED TO LOWER LEVEL:          0  ACCURACY: -nan
DTLB TIMELY PREFETCHES:          0 LATE PREFETCHES: 0 DROPPED PREFETCHES: 0
DTLB PREFETCHES SAME FILL-ORIGIN LEVEL: 0 DIFFERENT FILL-ORIGIN LEVEL: 0
DTLB AVERAGE MISS LATENCY: 36.0528 cycles
DTLB RQ	ACCESS:   23392569	FORWARD:          0	MERGED:    9972234	TO_CACHE:   13420335

Revised Interactions: positive negative neutral
DTLB_interactions 0 0 0 -nan -nan -nan
STLB TOTAL     ACCESS:    3998982  HIT:    3955732  MISS:      43250  HIT %:    98.9185  MISS %:    1.08153   MPKI: 0.865
STLB LOAD TRANSLATION ACCESS:     123011  HIT:      79772  MISS:      43239  HIT %:    64.8495  MISS %:    35.1505   MPKI: 0.86478
STLB TRANSLATION FROM L1D PREFETCHER ACCESS:    3875971  HIT:    3875960  MISS:         11  HIT %:    99.9997  MISS %:  0.0002838   MPKI: 0.00022
STLB PREFETCH  REQUESTED:          0  ISSUED:          0  USEFUL:          7  USELESS:          4
STLB USEFUL LOAD PREFETCHES:          7 PREFETCH ISSUED TO LOWER LEVEL:          0  ACCURACY: inf
STLB TIMELY PREFETCHES:          7 LATE PREFETCHES: 0 DROPPED PREFETCHES: 0
STLB PREFETCHES SAME FILL-ORIGIN LEVEL: 0 DIFFERENT FILL-ORIGIN LEVEL: 0
STLB AVERAGE MISS LATENCY: 76.9215 cycles
STLB RQ	ACCESS:    6236869	FORWARD:          0	MERGED:    2237887	TO_CACHE:    3998982

Revised Interactions: positive negative neutral
STLB_interactions 0 0 0 -nan -nan -nan
STLB Hit, L1D data hit: 0
STLB Hit, L2C data hit: 0
STLB Hit, LLC data hit: 0
STLB Hit, LLC data miss: 0
STLB STLB hints to L2: 0
L1D TOTAL     ACCESS:   28571627  HIT:   26213006  MISS:    2358621  HIT %:    91.7449  MISS %:    8.25512   MPKI: 47.1724
L1D LOAD      ACCESS:    9009127  HIT:    8234845  MISS:     774282  HIT %:    91.4056  MISS %:    8.59442   MPKI: 15.4856
L1D RFO       ACCESS:   13562752  HIT:   13424339  MISS:     138413  HIT %:    98.9795  MISS %:    1.02054   MPKI: 2.76826
L1D PREFETCH  ACCESS:    5999748  HIT:    4553822  MISS:    1445926  HIT %:    75.9002  MISS %:    24.0998   MPKI: 28.9185
L1D PREFETCH  REQUESTED:   12228021  ISSUED:   12227716  USEFUL:     448335  USELESS:     997591
L1D USEFUL LOAD PREFETCHES:     448335 PREFETCH ISSUED TO LOWER LEVEL:    1454960  ACCURACY: 30.8142
L1D TIMELY PREFETCHES:     448335 LATE PREFETCHES: 278104 DROPPED PREFETCHES: 0
L1D PREFETCHES SAME FILL-ORIGIN LEVEL: 1454960 DIFFERENT FILL-ORIGIN LEVEL: 0
L1D AVERAGE MISS LATENCY: 307278 cycles
L1D RQ	ACCESS:   15839488	FORWARD:          0	MERGED:    6464766	TO_CACHE:    9368579
L1D WQ	ACCESS:   14166007	FORWARD:       6143	MERGED:     142017	TO_CACHE:   14023990
L1D PQ	ACCESS:    6113858	FORWARD:          0	MERGED:          0	TO_CACHE:    6113858

Revised Interactions: positive negative neutral
L1D_interactions 0 0 0 -nan -nan -nan
L1D UNIQUE REGIONS ACCESSED: 0
L1D REGIONS CONFLICTS: 0
L1D Cross Page Prefetch Requests: 0
L1D Same Page Prefetch Requests: 12401689
L1D ROI Sum of L1D PQ occupancy: 90109917
L1D PREFETCHES PUSHED FROM L2C: 0
L1I TOTAL     ACCESS:   10722153  HIT:   10722153  MISS:          0  HIT %:        100  MISS %:          0   MPKI: 0
L1I LOAD      ACCESS:   10722153  HIT:   10722153  MISS:          0  HIT %:        100  MISS %:          0   MPKI: 0
L1I PREFETCH  REQUESTED:          0  ISSUED:          0  USEFUL:          0  USELESS:          0
L1I USEFUL LOAD PREFETCHES:          0 PREFETCH ISSUED TO LOWER LEVEL:          0  ACCURACY: -nan
L1I TIMELY PREFETCHES:          0 LATE PREFETCHES: 0 DROPPED PREFETCHES: 0
L1I PREFETCHES SAME FILL-ORIGIN LEVEL: 0 DIFFERENT FILL-ORIGIN LEVEL: 0
L1I AVERAGE MISS LATENCY: -nan cycles
L1I RQ	ACCESS:   14457434	FORWARD:          0	MERGED:    3735281	TO_CACHE:   10722153

Revised Interactions: positive negative neutral
L1I_interactions 0 0 0 -nan -nan -nan
BTB TOTAL     ACCESS:    4939330  HIT:    4939296  MISS:         34  HIT %:    99.9993  MISS %: 0.000688352   MPKI: 0.00068
BTB BRANCH_DIRECT_JUMP	ACCESS:     263981  HIT:     263975  MISS:          6
BTB BRANCH_INDIRECT	ACCESS:          0  HIT:          0  MISS:          0
BTB BRANCH_CONDITIONAL	ACCESS:    4675297  HIT:    4675273  MISS:         24
BTB BRANCH_DIRECT_CALL	ACCESS:         26  HIT:         24  MISS:          2
BTB BRANCH_INDIRECT_CALL	ACCESS:          0  HIT:          0  MISS:          0
BTB BRANCH_RETURN	ACCESS:         26  HIT:         24  MISS:          2
BTB BRANCH_OTHER ACCESS:          0  HIT:          0  MISS:          0

L2C TOTAL     ACCESS:    3114412  HIT:     998263  MISS:    2116149  HIT %:     32.053  MISS %:     67.947   MPKI: 42.323
L2C LOAD      ACCESS:     774269  HIT:      45703  MISS:     728566  HIT %:    5.90273  MISS %:    94.0973   MPKI: 14.5713
L2C DATA LOAD MPKI: 14.5713
L2C INSTRUCTION LOAD MPKI: 0
L2C RFO       ACCESS:     129379  HIT:       2202  MISS:     127177  HIT %:    1.70198  MISS %:     98.298   MPKI: 2.54354
L2C PREFETCH  ACCESS:    1799994  HIT:     550767  MISS:    1249227  HIT %:    30.5983  MISS %:    69.4017   MPKI: 24.9845
L2C DATA PREFETCH MPKI: 24.9845
L2C INSTRUCTION PREFETCH MPKI: 0
L2C WRITEBACK ACCESS:     367430  HIT:     362515  MISS:       4915  HIT %:    98.6623  MISS %:    1.33767   MPKI: 0.0983
L2C LOAD TRANSLATION ACCESS:      43329  HIT:      37076  MISS:       6253  HIT %:    85.5686  MISS %:    14.4314   MPKI: 0.12506
L2C TRANSLATION FROM L1D PREFETCHER ACCESS:         11  HIT:          0  MISS:         11  HIT %:          0  MISS %:        100   MPKI: 0.00022
L2C PREFETCH  REQUESTED:     458483  ISSUED:     458483  USEFUL:      19230  USELESS:    1229904
L2C USEFUL LOAD PREFETCHES:      19230 PREFETCH ISSUED TO LOWER LEVEL:    1249471  ACCURACY: 1.53905
L2C TIMELY PREFETCHES:      19230 LATE PREFETCHES: 244 DROPPED PREFETCHES: 0
L2C PREFETCHES SAME FILL-ORIGIN LEVEL: 165888 DIFFERENT FILL-ORIGIN LEVEL: 0
L2C AVERAGE MISS LATENCY: 165.878 cycles
L2C RQ	ACCESS:     947002	FORWARD:          0	MERGED:          0	TO_CACHE:     946989
L2C WQ	ACCESS:     367430	FORWARD:         18	MERGED:          0	TO_CACHE:     367430
L2C PQ	ACCESS:    1913443	FORWARD:          0	MERGED:      19044	TO_CACHE:    1894394

Revised Interactions: positive negative neutral
L2C_interactions 16131 1237586 485233 0.927629 71.1686 27.9038
L2C Instructions Evicting Data 0
L2C Translations Evicting Data 6245
L2C Data Evicting Data 2098746
L2C Instructions Evicting Instructions 0
L2C Translations Evicting Instructions 0
L2C Data Evicting Instructions 0
L2C Instructions Evicting Translations 0
L2C Translations Evicting Translations 19
L2C Data Evicting Translations 6224
L2C Dense regions hint from L2: 0
PSCL5 TOTAL     ACCESS:      43250  HIT:      43250  MISS:          0  HIT %:        100  MISS %:          0   MPKI: 0
PSCL5 LOAD TRANSLATION ACCESS:      43239  HIT:      43239  MISS:          0  HIT %:        100  MISS %:          0   MPKI: 0
PSCL5 TRANSLATION FROM L1D PREFETCHER ACCESS:         11  HIT:         11  MISS:          0  HIT %:        100  MISS %:          0   MPKI: 0
PSCL5 PREFETCH  REQUESTED:          0  ISSUED:          0  USEFUL:          0  USELESS:          0
PSCL5 USEFUL LOAD PREFETCHES:          0 PREFETCH ISSUED TO LOWER LEVEL:          0  ACCURACY: -nan
PSCL5 TIMELY PREFETCHES:          0 LATE PREFETCHES: 0 DROPPED PREFETCHES: 0
PSCL5 PREFETCHES SAME FILL-ORIGIN LEVEL: 0 DIFFERENT FILL-ORIGIN LEVEL: 0

Revised Interactions: positive negative neutral
PSCL5_interactions 0 0 0 -nan -nan -nan
PSCL4 TOTAL     ACCESS:      43250  HIT:      43250  MISS:          0  HIT %:        100  MISS %:          0   MPKI: 0
PSCL4 LOAD TRANSLATION ACCESS:      43239  HIT:      43239  MISS:          0  HIT %:        100  MISS %:          0   MPKI: 0
PSCL4 TRANSLATION FROM L1D PREFETCHER ACCESS:         11  HIT:         11  MISS:          0  HIT %:        100  MISS %:          0   MPKI: 0
PSCL4 PREFETCH  REQUESTED:          0  ISSUED:          0  USEFUL:          0  USELESS:          0
PSCL4 USEFUL LOAD PREFETCHES:          0 PREFETCH ISSUED TO LOWER LEVEL:          0  ACCURACY: -nan
PSCL4 TIMELY PREFETCHES:          0 LATE PREFETCHES: 0 DROPPED PREFETCHES: 0
PSCL4 PREFETCHES SAME FILL-ORIGIN LEVEL: 0 DIFFERENT FILL-ORIGIN LEVEL: 0

Revised Interactions: positive negative neutral
PSCL4_interactions 0 0 0 -nan -nan -nan
PSCL3 TOTAL     ACCESS:      43250  HIT:      43250  MISS:          0  HIT %:        100  MISS %:          0   MPKI: 0
PSCL3 LOAD TRANSLATION ACCESS:      43239  HIT:      43239  MISS:          0  HIT %:        100  MISS %:          0   MPKI: 0
PSCL3 TRANSLATION FROM L1D PREFETCHER ACCESS:         11  HIT:         11  MISS:          0  HIT %:        100  MISS %:          0   MPKI: 0
PSCL3 PREFETCH  REQUESTED:          0  ISSUED:          0  USEFUL:          0  USELESS:          0
PSCL3 USEFUL LOAD PREFETCHES:          0 PREFETCH ISSUED TO LOWER LEVEL:          0  ACCURACY: -nan
PSCL3 TIMELY PREFETCHES:          0 LATE PREFETCHES: 0 DROPPED PREFETCHES: 0
PSCL3 PREFETCHES SAME FILL-ORIGIN LEVEL: 0 DIFFERENT FILL-ORIGIN LEVEL: 0

Revised Interactions: positive negative neutral
PSCL3_interactions 0 0 0 -nan -nan -nan
PSCL2 TOTAL     ACCESS:      43250  HIT:      43125  MISS:        125  HIT %:     99.711  MISS %:   0.289017   MPKI: 0.0025
PSCL2 LOAD TRANSLATION ACCESS:      43239  HIT:      43114  MISS:        125  HIT %:    99.7109  MISS %:   0.289091   MPKI: 0.0025
PSCL2 TRANSLATION FROM L1D PREFETCHER ACCESS:         11  HIT:         11  MISS:          0  HIT %:        100  MISS %:          0   MPKI: 0
PSCL2 PREFETCH  REQUESTED:          0  ISSUED:          0  USEFUL:          0  USELESS:          0
PSCL2 USEFUL LOAD PREFETCHES:          0 PREFETCH ISSUED TO LOWER LEVEL:          0  ACCURACY: -nan
PSCL2 TIMELY PREFETCHES:          0 LATE PREFETCHES: 0 DROPPED PREFETCHES: 0
PSCL2 PREFETCHES SAME FILL-ORIGIN LEVEL: 0 DIFFERENT FILL-ORIGIN LEVEL: 0

Revised Interactions: positive negative neutral
PSCL2_interactions 0 0 0 -nan -nan -nan
LLC TOTAL     ACCESS:    2444957  HIT:     321301  MISS:    2123656  HIT %:    13.1414  MISS %:    86.8586   MPKI: 42.4731
LLC LOAD      ACCESS:     728322  HIT:     219052  MISS:     509270  HIT %:    30.0763  MISS %:    69.9237   MPKI: 10.1854
LLC RFO       ACCESS:     127177  HIT:        104  MISS:     127073  HIT %:  0.0817758  MISS %:    99.9182   MPKI: 2.54146
LLC PREFETCH  ACCESS:    1249471  HIT:      95937  MISS:    1153534  HIT %:    7.67821  MISS %:    92.3218   MPKI: 23.0707
LLC WRITEBACK ACCESS:     333723  HIT:       4267  MISS:     329456  HIT %:    1.27861  MISS %:    98.7214   MPKI: 6.58912
LLC LOAD TRANSLATION ACCESS:       6253  HIT:       1932  MISS:       4321  HIT %:    30.8972  MISS %:    69.1028   MPKI: 0.08642
LLC TRANSLATION FROM L1D PREFETCHER ACCESS:         11  HIT:          9  MISS:          2  HIT %:    81.8182  MISS %:    18.1818   MPKI: 4e-05
LLC PREFETCH  REQUESTED:          0  ISSUED:          0  USEFUL:         60  USELESS:       9974
LLC USEFUL LOAD PREFETCHES:         60 PREFETCH ISSUED TO LOWER LEVEL:    1153534  ACCURACY: 0.00520141
LLC TIMELY PREFETCHES:         60 LATE PREFETCHES: 0 DROPPED PREFETCHES: 0
LLC PREFETCHES SAME FILL-ORIGIN LEVEL: 0 DIFFERENT FILL-ORIGIN LEVEL: 0
LLC AVERAGE MISS LATENCY: 135.293 cycles
LLC RQ	ACCESS:     861764	FORWARD:          0	MERGED:          0	TO_CACHE:     861764
LLC WQ	ACCESS:     333723	FORWARD:          0	MERGED:          0	TO_CACHE:     333723
LLC PQ	ACCESS:    1249471	FORWARD:          0	MERGED:          0	TO_CACHE:    1249471

Revised Interactions: positive negative neutral
LLC_interactions 7 333 6820 0.0977654 4.65084 95.2514
LLC Dense regions hint to LLC: 0

RAW hits: 376025
Loads Generated: 16215513
Loads sent to L1D: 15839488
Stores Generated: 14166002
Stores sent to L1D: 14166007
Major fault: 0 Minor fault: 31203
Allocated PAGES: 31203

stream: 
stream:times selected: 11951805
stream:pref_filled: 1245413
stream:pref_useful: 267387
stream:pref_late: 124887
stream:misses: 200679
stream:misses_by_poll: 0

CS: 
CS:times selected: 391913
CS:pref_filled: 270659
CS:pref_useful: 267841
CS:pref_late: 3122
CS:misses: 6572
CS:misses_by_poll: 214

CPLX: 
CPLX:times selected: 11471748
CPLX:pref_filled: 1245468
CPLX:pref_useful: 397167
CPLX:pref_late: 286545
CPLX:misses: 1443743
CPLX:misses_by_poll: 4027

NL_L1: 
NL:times selected: 110691
NL:pref_filled: 15308
NL:pref_useful: 5927
NL:pref_late: 2468
NL:misses: 28634
NL:misses_by_poll: 2

total selections: 23926157
total_filled: 1445926
total_useful: 448335
total_late: 417022
total_polluted: 4243
total_misses_after_warmup: 1133734
conflicts: 21493
Degree Incremented Times: 76111
Degree Decremented Times: 234673

L1 IP Table Write Accesses: 9279984
L1 IP Table Read Accesses: 9258491
L1 RST Write Accesses: 5911306
L1 RST Read Accesses: 11822612
L1 CSPT Write Accesses: 5911306
L1 CSPT Read Accesses: 11544683
L1 RR Filter Tag Write Accesses: 6114163
L1 RR Filter Tag Read Accesses: 279716282
L1 IP Table Tag Write Accesses: 9368579
L1 IP Table Tag Read Accesses: 9368579
L1 RST Tag Write Accesses: 0
L1 RST Tag Read Accesses: 56648638
L1 RR Filter Write Accesses: 0
L1 RR Filter Read Accesses: 9240448
test: 6577652
L2 IP Table Read Accesses: 4338579
L2 IP Table Write Accesses: 3619865
L2 IP Table Tag Read Accesses: 2197001
L2 IP Table Tag Write Accesses: 2197001

DRAM Statistics
 CHANNEL 0
 RQ ROW_BUFFER_HIT:     850783  ROW_BUFFER_MISS:     943412
 DBUS_CONGESTED:       1391
 WQ ROW_BUFFER_HIT:      77358  ROW_BUFFER_MISS:     268271  FULL:          0

 AVG_CONGESTED_CYCLE: 5
 All warmup complete: 2
Channel 0 Bank busy for read cycles: 0
Channel 0 Bank busy for write cycles: 0
Channel 0
Rank 0
0banks busy for read cycles: 32284591
0banks busy for write cycles: 61466
1banks busy for read cycles: 28139797
1banks busy for write cycles: 8886481
2banks busy for read cycles: 16483850
2banks busy for write cycles: 5756325
3banks busy for read cycles: 9677286
3banks busy for write cycles: 3970282
4banks busy for read cycles: 5127036
4banks busy for write cycles: 2663536
5banks busy for read cycles: 3641436
5banks busy for write cycles: 1668869
6banks busy for read cycles: 3298934
6banks busy for write cycles: 1025813
7banks busy for read cycles: 2827337
7banks busy for write cycles: 777962
8banks busy for read cycles: 2022249
8banks busy for write cycles: 2737608

CPU 0 Branch Prediction Accuracy: 98.167% MPKI: 1.85038 Average ROB Occupancy at Mispredict: 203.887
Branch types
NOT_BRANCH: 44952500 89.905%
BRANCH_DIRECT_JUMP: 263981 0.527962%
BRANCH_INDIRECT: 0 0%
BRANCH_CONDITIONAL: 4783421 9.56684%
BRANCH_DIRECT_CALL: 26 5.2e-05%
BRANCH_INDIRECT_CALL: 0 0%
BRANCH_RETURN: 26 5.2e-05%
BRANCH_OTHER: 0 0%

@sumon_overall_L1D    448335    278104    278104    997591   1445926  12227716  12228021
@Sumon_Early_by_class_L1D    125954    156907    162860      1812
@Sumon_Late_by_class_L1D     84235      3016    133105      1812

@Sumon_Early_by_cycle_L1D    116319     74152     70279     27264     13409     37762     18742     23285     31302     22988     10235      2598
@Sumon_Late_by_cycle_L1D      8671     22437     40352     33901    115699      1108
@Sumon_Early_stream_L1D     59750     26925      7873       715        66      9165      7346      4977      4218      3238      1009       672
@Sumon_Early_CS_L1D     10054     18324     46572     23499     12314     15618      4764     10393     15108       253         4         4
@Sumon_Early_CPLX_L1D     44941     28491     15776      3038      1029     12906      6552      7780     11849     19406      9191      1901
@Sumon_Late_stream_L1D      3304     11110     12060     16400     41061       300
@Sumon_Late_CS_L1D       261       520       665       622       943         5
@Sumon_Late_CPLX_L1D      5017     10685     27358     16447     72811       787
@sumon_overall_L2C     19230       244         0   1229904   1249238    458483    458483
@Sumon_Early_by_class_L2C      2470      1315     13026         0
@Sumon_Late_by_class_L2C         0       219         0         0

@Sumon_Early_by_cycle_L2C       226       252       325       225        79       185       120       187       556      1691      3801     11583
@Sumon_Late_by_cycle_L2C        18        30        46        60        89         1
@Sumon_Early_stream_L2C         0         0         0         0         0         0         1         4       117       407       597      1344
@Sumon_Early_CS_L2C       225       252       323       225        79       112        40        11        37        10         0         1
@Sumon_Early_CPLX_L2C         0         0         0         0         0         0         0         3        54       690      2871      9408
@Sumon_Late_stream_L2C         0         0         0         0         0         0
@Sumon_Late_CS_L2C         0        30        45        58        85         1
@Sumon_Late_CPLX_L2C         0         0         0         0         0         0
DRAM PAGES: 1048576
Allocated PAGES: 31203
