
*** ChampSim Multicore Out-of-Order Simulator ***

Warmup Instructions: 50000000
Simulation Instructions: 50000000
Number of CPUs: 1
LLC sets: 2048
LLC ways: 16
Off-chip DRAM Size: 4096 MB Channels: 1 Width: 64-bit Data Rate: 6400 MT/s
CPU 0 runs ../../biswa/SPEC2017Traces/605.mcf_s-1536B.champsimtrace.xz
.xz
CPU 0 Bimodal branch predictor
BTB has LRU replacement policy
ITLB has LRU replacement policy
DTLB has LRU replacement policy
STLB has LRU replacement policy
L1I has LRU replacement policy
IP Table Entries: 256
L1D has LRU replacement policy
IP_Table L2 entries: 256
Initialize DRRIP state for L2C
epoch: 1000
next table: 2004
cur table: 5396
epoch: 1000
next table: 1807
cur table: 2004
epoch: 1000
next table: 1723
cur table: 1807
epoch: 1000
next table: 1702
cur table: 1723
epoch: 1000
next table: 1712
cur table: 1702
epoch: 1000
next table: 1718
cur table: 1712
epoch: 1000
next table: 1681
cur table: 1718
epoch: 1000
next table: 1740
cur table: 1681
epoch: 1000
next table: 1718
cur table: 1740
epoch: 1000
next table: 1688
cur table: 1718
epoch: 1000
next table: 1699
cur table: 1688
epoch: 1000
next table: 1693
cur table: 1699
epoch: 1000
next table: 1670
cur table: 1693
epoch: 1000
next table: 1690
cur table: 1670
epoch: 1000
next table: 1691
cur table: 1690
epoch: 1000
next table: 1707
cur table: 1691
epoch: 1000
next table: 1701
cur table: 1707
epoch: 1000
next table: 1683
cur table: 1701
epoch: 1000
next table: 1686
cur table: 1683
epoch: 1000
next table: 1702
cur table: 1686
epoch: 1000
next table: 1690
cur table: 1702
epoch: 1000
next table: 1704
cur table: 1690
epoch: 1000
next table: 1692
cur table: 1704
epoch: 1000
next table: 1717
cur table: 1692
epoch: 1000
next table: 1704
cur table: 1717
epoch: 1000
next table: 1690
cur table: 1704
epoch: 1000
next table: 1716
cur table: 1690
epoch: 1000
next table: 1706
cur table: 1716
epoch: 1000
next table: 1688
cur table: 1706
epoch: 1000
next table: 1675
cur table: 1688
epoch: 1000
next table: 1740
cur table: 1675
epoch: 1000
next table: 1685
cur table: 1740
epoch: 1000
next table: 1708
cur table: 1685
epoch: 1000
next table: 1673
cur table: 1708
epoch: 1000
next table: 1690
cur table: 1673
epoch: 1000
next table: 1708
cur table: 1690
epoch: 1000
next table: 1691
cur table: 1708
epoch: 1000
next table: 1725
cur table: 1691
epoch: 1000
next table: 3819
cur table: 24458
epoch: 1000
next table: 1716
cur table: 1725
epoch: 1000
next table: 1691
cur table: 1716
epoch: 1000
next table: 1691
cur table: 1691
epoch: 1000
next table: 1751
cur table: 1691
epoch: 1000
next table: 1697
cur table: 1751
epoch: 1000
next table: 1695
cur table: 1697
epoch: 1000
next table: 3849
cur table: 3819
epoch: 1000
next table: 1671
cur table: 1695
epoch: 1000
next table: 1691
cur table: 1671
epoch: 1000
next table: 1687
cur table: 1691
epoch: 1000
next table: 2851
cur table: 3849
epoch: 1000
next table: 1700
cur table: 1687
epoch: 1000
next table: 1728
cur table: 1700
epoch: 1000
next table: 1714
cur table: 1728
epoch: 1000
next table: 2630
cur table: 2851
epoch: 1000
next table: 1717
cur table: 1714
epoch: 1000
next table: 1688
cur table: 1717
epoch: 1000
next table: 1752
cur table: 1688
epoch: 1000
next table: 2643
cur table: 2630
epoch: 1000
next table: 1714
cur table: 1752
epoch: 1000
next table: 1709
cur table: 1714
epoch: 1000
next table: 1694
cur table: 1709
epoch: 1000
next table: 2620
cur table: 2643
epoch: 1000
next table: 1684
cur table: 1694
epoch: 1000
next table: 1703
cur table: 1684
epoch: 1000
next table: 1706
cur table: 1703
epoch: 1000
next table: 2400
cur table: 2620
epoch: 1000
next table: 1757
cur table: 1706
epoch: 1000
next table: 1727
cur table: 1757
epoch: 1000
next table: 2326
cur table: 2400
epoch: 1000
next table: 1720
cur table: 1727
epoch: 1000
next table: 1691
cur table: 1720
epoch: 1000
next table: 1763
cur table: 1691
epoch: 1000
next table: 2245
cur table: 2326
epoch: 1000
next table: 1728
cur table: 1763
epoch: 1000
next table: 1714
cur table: 1728
epoch: 1000
next table: 2302
cur table: 2245
epoch: 1000
next table: 1661
cur table: 1714
epoch: 1000
next table: 1781
cur table: 1661
epoch: 1000
next table: 2257
cur table: 2302
epoch: 1000
next table: 1730
cur table: 1781
epoch: 1000
next table: 1733
cur table: 1730
epoch: 1000
next table: 1806
cur table: 1733
epoch: 1000
next table: 2274
cur table: 2257
epoch: 1000
next table: 1771
cur table: 1806
epoch: 1000
next table: 1713
cur table: 1771
epoch: 1000
next table: 2232
cur table: 2274
epoch: 1000
next table: 1791
cur table: 1713
epoch: 1000
next table: 1770
cur table: 1791
epoch: 1000
next table: 2122
cur table: 2232
epoch: 1000
next table: 1714
cur table: 1770
epoch: 1000
next table: 1702
cur table: 1714
epoch: 1000
next table: 2204
cur table: 2122
epoch: 1000
next table: 1700
cur table: 1702
epoch: 1000
next table: 1713
cur table: 1700
epoch: 1000
next table: 1703
cur table: 1713
epoch: 1000
next table: 2234
cur table: 2204
epoch: 1000
next table: 1754
cur table: 1703
epoch: 1000
next table: 1776
cur table: 1754
epoch: 1000
next table: 2195
cur table: 2234
epoch: 1000
next table: 1741
cur table: 1776
epoch: 1000
next table: 1753
cur table: 1741
epoch: 1000
next table: 2290
cur table: 2195
epoch: 1000
next table: 1762
cur table: 1753
epoch: 1000
next table: 1825
cur table: 1762
epoch: 1000
next table: 2047
cur table: 2290
epoch: 1000
next table: 1718
cur table: 1825
epoch: 1000
next table: 1816
cur table: 1718
epoch: 1000
next table: 1729
cur table: 1816
epoch: 1000
next table: 2232
cur table: 2047
epoch: 1000
next table: 1722
cur table: 1729
epoch: 1000
next table: 1706
cur table: 1722
epoch: 1000
next table: 2182
cur table: 2232
epoch: 1000
next table: 1743
cur table: 1706
epoch: 1000
next table: 1767
cur table: 1743
epoch: 1000
next table: 2204
cur table: 2182
epoch: 1000
next table: 1734
cur table: 1767
epoch: 1000
next table: 1717
cur table: 1734
epoch: 1000
next table: 2229
cur table: 2204
epoch: 1000
next table: 1801
cur table: 1717
epoch: 1000
next table: 1822
cur table: 1801
epoch: 1000
next table: 2043
cur table: 2229
epoch: 1000
next table: 1751
cur table: 1822
epoch: 1000
next table: 1725
cur table: 1751
epoch: 1000
next table: 2150
cur table: 2043
epoch: 1000
next table: 1708
cur table: 1725
epoch: 1000
next table: 1715
cur table: 1708
epoch: 1000
next table: 1731
cur table: 1715
epoch: 1000
next table: 2236
cur table: 2150
epoch: 1000
next table: 1761
cur table: 1731
epoch: 1000
next table: 1774
cur table: 1761
epoch: 1000
next table: 2135
cur table: 2236
epoch: 1000
next table: 1760
cur table: 1774
epoch: 1000
next table: 1756
cur table: 1760
epoch: 1000
next table: 2225
cur table: 2135
epoch: 1000
next table: 1735
cur table: 1756
epoch: 1000
next table: 1797
cur table: 1735
epoch: 1000
next table: 1999
cur table: 2225
epoch: 1000
next table: 1740
cur table: 1797
epoch: 1000
next table: 1747
cur table: 1740
epoch: 1000
next table: 2101
cur table: 1999
epoch: 1000
next table: 1758
cur table: 1747
epoch: 1000
next table: 1734
cur table: 1758
epoch: 1000
next table: 2163
cur table: 2101
epoch: 1000
next table: 1739
cur table: 1734
epoch: 1000
next table: 1761
cur table: 1739
epoch: 1000
next table: 2067
cur table: 2163
epoch: 1000
next table: 1786
cur table: 1761
epoch: 1000
next table: 1700
cur table: 1786
epoch: 1000
next table: 1779
cur table: 1700
epoch: 1000
next table: 2116
cur table: 2067
epoch: 1000
next table: 1745
cur table: 1779
epoch: 1000
next table: 1807
cur table: 1745
epoch: 1000
next table: 2061
cur table: 2116
epoch: 1000
next table: 1749
cur table: 1807
epoch: 1000
next table: 1753
cur table: 1749
epoch: 1000
next table: 2059
cur table: 2061
epoch: 1000
next table: 1751
cur table: 1753
epoch: 1000
next table: 1787
cur table: 1751
epoch: 1000
next table: 2148
cur table: 2059
epoch: 1000
next table: 1760
cur table: 1787
epoch: 1000
next table: 1772
cur table: 1760
epoch: 1000
next table: 2156
cur table: 2148
epoch: 1000
next table: 1810
cur table: 1772
epoch: 1000
next table: 1789
cur table: 1810
epoch: 1000
next table: 2077
cur table: 2156
epoch: 1000
next table: 1789
cur table: 1789
epoch: 1000
next table: 1756
cur table: 1789
epoch: 1000
next table: 2112
cur table: 2077
epoch: 1000
next table: 1816
cur table: 1756
epoch: 1000
next table: 1796
cur table: 1816
epoch: 1000
next table: 1970
cur table: 2112
epoch: 1000
next table: 1765
cur table: 1796
epoch: 1000
next table: 1758
cur table: 1765
epoch: 1000
next table: 2114
cur table: 1970
epoch: 1000
next table: 1748
cur table: 1758
epoch: 1000
next table: 1769
cur table: 1748
epoch: 1000
next table: 2119
cur table: 2114
epoch: 1000
next table: 1773
cur table: 1769
epoch: 1000
next table: 1807
cur table: 1773
epoch: 1000
next table: 2073
cur table: 2119
epoch: 1000
next table: 1774
cur table: 1807
epoch: 1000
next table: 1788
cur table: 1774
epoch: 1000
next table: 2121
cur table: 2073
epoch: 1000
next table: 1747
cur table: 1788
epoch: 1000
next table: 1799
cur table: 1747
epoch: 1000
next table: 1940
cur table: 2121
epoch: 1000
next table: 1806
cur table: 1799
epoch: 1000
next table: 1762
cur table: 1806
epoch: 1000
next table: 2065
cur table: 1940
epoch: 1000
next table: 1727
cur table: 1762
epoch: 1000
next table: 1776
cur table: 1727
epoch: 1000
next table: 2162
cur table: 2065
epoch: 1000
next table: 1758
cur table: 1776
epoch: 1000
next table: 1775
cur table: 1758
epoch: 1000
next table: 2040
cur table: 2162
epoch: 1000
next table: 1830
cur table: 1775
epoch: 1000
next table: 1789
cur table: 1830
epoch: 1000
next table: 2122
cur table: 2040
epoch: 1000
next table: 1812
cur table: 1789
epoch: 1000
next table: 1762
cur table: 1812
epoch: 1000
next table: 1826
cur table: 1762
epoch: 1000
next table: 2026
cur table: 2122
epoch: 1000
next table: 1765
cur table: 1826
epoch: 1000
next table: 1996
cur table: 2026
epoch: 1000
next table: 1757
cur table: 1765
epoch: 1000
next table: 1752
cur table: 1757
epoch: 1000
next table: 2083
cur table: 1996
epoch: 1000
next table: 1772
cur table: 1752
epoch: 1000
next table: 1766
cur table: 1772
epoch: 1000
next table: 1781
cur table: 1766
epoch: 1000
next table: 2054
cur table: 2083
epoch: 1000
next table: 1869
cur table: 1781
epoch: 1000
next table: 1806
cur table: 1869
epoch: 1000
next table: 2062
cur table: 2054
epoch: 1000
next table: 1814
cur table: 1806
epoch: 1000
next table: 1784
cur table: 1814
epoch: 1000
next table: 2075
cur table: 2062
epoch: 1000
next table: 1856
cur table: 1784
epoch: 1000
next table: 1948
cur table: 2075
epoch: 1000
next table: 1746
cur table: 1856
epoch: 1000
next table: 1799
cur table: 1746
epoch: 1000
next table: 1751
cur table: 1799
epoch: 1000
next table: 2076
cur table: 1948
epoch: 1000
next table: 1777
cur table: 1751
epoch: 1000
next table: 1769
cur table: 1777
epoch: 1000
next table: 2146
cur table: 2076
epoch: 1000
next table: 1798
cur table: 1769
epoch: 1000
next table: 1868
cur table: 1798
epoch: 1000
next table: 1997
cur table: 2146
epoch: 1000
next table: 1794
cur table: 1868
epoch: 1000
next table: 1825
cur table: 1794
epoch: 1000
next table: 2095
cur table: 1997
epoch: 1000
next table: 1802
cur table: 1825
epoch: 1000
next table: 1806
cur table: 1802
epoch: 1000
next table: 2038
cur table: 2095
epoch: 1000
next table: 1841
cur table: 1806
epoch: 1000
next table: 1808
cur table: 1841
epoch: 1000
next table: 2023
cur table: 2038
epoch: 1000
next table: 1834
cur table: 1808
epoch: 1000
next table: 1779
cur table: 1834
epoch: 1000
next table: 2109
cur table: 2023
epoch: 1000
next table: 1790
cur table: 1779
epoch: 1000
next table: 1785
cur table: 1790
epoch: 1000
next table: 2087
cur table: 2109
epoch: 1000
next table: 1881
cur table: 1785
epoch: 1000
next table: 1847
cur table: 1881
epoch: 1000
next table: 2024
cur table: 2087
epoch: 1000
next table: 1852
cur table: 1847
epoch: 1000
next table: 1816
cur table: 1852
epoch: 1000
next table: 2116
cur table: 2024
epoch: 1000
next table: 1862
cur table: 1816
epoch: 1000
next table: 1863
cur table: 1862
epoch: 1000
next table: 1937
cur table: 2116
epoch: 1000
next table: 1809
cur table: 1863
epoch: 1000
next table: 1777
cur table: 1809
epoch: 1000
next table: 2072
cur table: 1937
epoch: 1000
next table: 1788
cur table: 1777
epoch: 1000
next table: 1800
cur table: 1788
epoch: 1000
next table: 2091
cur table: 2072
epoch: 1000
next table: 1836
cur table: 1800
epoch: 1000
next table: 1856
cur table: 1836
epoch: 1000
next table: 2023
cur table: 2091
epoch: 1000
next table: 1835
cur table: 1856
epoch: 1000
next table: 1850
cur table: 1835
epoch: 1000
next table: 2088
cur table: 2023
epoch: 1000
next table: 1833
cur table: 1850
epoch: 1000
next table: 1855
cur table: 1833
epoch: 1000
next table: 1995
cur table: 2088
epoch: 1000
next table: 1870
cur table: 1855
epoch: 1000
next table: 1859
cur table: 1870
epoch: 1000
next table: 2060
cur table: 1995
epoch: 1000
next table: 1829
cur table: 1859
epoch: 1000
next table: 1785
cur table: 1829
epoch: 1000
next table: 2118
cur table: 2060
epoch: 1000
next table: 1815
cur table: 1785
epoch: 1000
next table: 1856
cur table: 1815
epoch: 1000
next table: 2105
cur table: 2118
epoch: 1000
next table: 1877
cur table: 1856
epoch: 1000
next table: 1824
cur table: 1877
epoch: 1000
next table: 2052
cur table: 2105
epoch: 1000
next table: 1861
cur table: 1824
epoch: 1000
next table: 1811
cur table: 1861
epoch: 1000
next table: 2073
cur table: 2052
epoch: 1000
next table: 1885
cur table: 1811
epoch: 1000
next table: 1839
cur table: 1885
epoch: 1000
next table: 1993
cur table: 2073
epoch: 1000
next table: 1806
cur table: 1839
epoch: 1000
next table: 1784
cur table: 1806
epoch: 1000
next table: 2083
cur table: 1993
epoch: 1000
next table: 1787
cur table: 1784
epoch: 1000
next table: 1805
cur table: 1787
epoch: 1000
next table: 1849
cur table: 1805
epoch: 1000
next table: 2093
cur table: 2083
epoch: 1000
next table: 1865
cur table: 1849
epoch: 1000
next table: 1997
cur table: 2093
epoch: 1000
next table: 1832
cur table: 1865
epoch: 1000
next table: 1841
cur table: 1832
epoch: 1000
next table: 1810
cur table: 1841
epoch: 1000
next table: 2096
cur table: 1997
epoch: 1000
next table: 1875
cur table: 1810
epoch: 1000
next table: 1933
cur table: 2096
epoch: 1000
next table: 1849
cur table: 1875
epoch: 1000
next table: 1790
cur table: 1849
epoch: 1000
next table: 1801
cur table: 1790
epoch: 1000
next table: 2059
cur table: 1933
epoch: 1000
next table: 1763
cur table: 1801
epoch: 1000
next table: 1796
cur table: 1763
epoch: 1000
next table: 2108
cur table: 2059
epoch: 1000
next table: 1811
cur table: 1796
epoch: 1000
next table: 1863
cur table: 1811
epoch: 1000
next table: 2035
cur table: 2108
epoch: 1000
next table: 1878
cur table: 1863
epoch: 1000
next table: 1882
cur table: 1878
epoch: 1000
next table: 2075
cur table: 2035
epoch: 1000
next table: 1833
cur table: 1882
epoch: 1000
next table: 1883
cur table: 1833
epoch: 1000
next table: 2041
cur table: 2075
epoch: 1000
next table: 1895
cur table: 1883
epoch: 1000
next table: 1820
cur table: 1895
epoch: 1000
next table: 2082
cur table: 2041
epoch: 1000
next table: 1836
cur table: 1820
epoch: 1000
next table: 1787
cur table: 1836
epoch: 1000
next table: 2146
cur table: 2082
epoch: 1000
next table: 1792
cur table: 1787
epoch: 1000
next table: 1788
cur table: 1792
epoch: 1000
next table: 2091
cur table: 2146
epoch: 1000
next table: 1841
cur table: 1788
epoch: 1000
next table: 1880
cur table: 1841
epoch: 1000
next table: 2057
cur table: 2091
epoch: 1000
next table: 1865
cur table: 1880
epoch: 1000
next table: 1826
cur table: 1865
epoch: 1000
next table: 2127
cur table: 2057
epoch: 1000
next table: 1895
cur table: 1826
epoch: 1000
next table: 1911
cur table: 1895
epoch: 1000
next table: 2032
cur table: 2127
epoch: 1000
next table: 1848
cur table: 1911
epoch: 1000
next table: 1825
cur table: 1848
epoch: 1000
next table: 1808
cur table: 1825
epoch: 1000
next table: 2232
cur table: 2032
epoch: 1000
next table: 1817
cur table: 1808
epoch: 1000
next table: 1828
cur table: 1817
epoch: 1000
next table: 2122
cur table: 2232
epoch: 1000
next table: 1827
cur table: 1828
epoch: 1000
next table: 1838
cur table: 1827
epoch: 1000
next table: 1999
cur table: 2122
epoch: 1000
next table: 1861
cur table: 1838
epoch: 1000
next table: 1827
cur table: 1861
epoch: 1000
next table: 2093
cur table: 1999
epoch: 1000
next table: 1859
cur table: 1827
epoch: 1000
next table: 1882
cur table: 1859
epoch: 1000
next table: 1919
cur table: 2093
epoch: 1000
next table: 1877
cur table: 1882
epoch: 1000
next table: 1838
cur table: 1877
epoch: 1000
next table: 2046
cur table: 1919
epoch: 1000
next table: 1807
cur table: 1838
epoch: 1000
next table: 1819
cur table: 1807
epoch: 1000
next table: 2044
cur table: 2046
epoch: 1000
next table: 1835
cur table: 1819
epoch: 1000
next table: 1819
cur table: 1835
epoch: 1000
next table: 2000
cur table: 2044
epoch: 1000
next table: 1877
cur table: 1819
epoch: 1000
next table: 1857
cur table: 1877
epoch: 1000
next table: 2157
cur table: 2000
epoch: 1000
next table: 1839
cur table: 1857
epoch: 1000
next table: 1850
cur table: 1839
epoch: 1000
next table: 2103
cur table: 2157
epoch: 1000
next table: 1959
cur table: 1850
epoch: 1000
next table: 1861
cur table: 1959
epoch: 1000
next table: 1843
cur table: 1861
epoch: 1000
next table: 2174
cur table: 2103
epoch: 1000
next table: 1808
cur table: 1843
epoch: 1000
next table: 1790
cur table: 1808
epoch: 1000
next table: 2231
cur table: 2174
epoch: 1000
next table: 1833
cur table: 1790
epoch: 1000
next table: 1825
cur table: 1833
epoch: 1000
next table: 2068
cur table: 2231
epoch: 1000
next table: 1872
cur table: 1825
epoch: 1000
next table: 1871
cur table: 1872
epoch: 1000
next table: 2010
cur table: 2068
epoch: 1000
next table: 1862
cur table: 1871
epoch: 1000
next table: 1852
cur table: 1862
epoch: 1000
next table: 2004
cur table: 2010
epoch: 1000
next table: 1964
cur table: 1852
epoch: 1000
next table: 1850
cur table: 1964
epoch: 1000
next table: 2014
cur table: 2004
epoch: 1000
next table: 1849
cur table: 1850
epoch: 1000
next table: 1818
cur table: 1849
epoch: 1000
next table: 2126
cur table: 2014
epoch: 1000
next table: 1825
cur table: 1818
epoch: 1000
next table: 1847
cur table: 1825
epoch: 1000
next table: 1988
cur table: 2126
epoch: 1000
next table: 1837
cur table: 1847
epoch: 1000
next table: 1906
cur table: 1837
epoch: 1000
next table: 2117
cur table: 1988
epoch: 1000
next table: 1857
cur table: 1906
epoch: 1000
next table: 1856
cur table: 1857
epoch: 1000
next table: 2188
cur table: 2117
epoch: 1000
next table: 1875
cur table: 1856
epoch: 1000
next table: 1967
cur table: 1875
epoch: 1000
next table: 2025
cur table: 2188
epoch: 1000
next table: 1853
cur table: 1967
epoch: 1000
next table: 1873
cur table: 1853
epoch: 1000
next table: 2035
cur table: 2025
epoch: 1000
next table: 1819
cur table: 1873
epoch: 1000
next table: 1842
cur table: 1819
epoch: 1000
next table: 2108
cur table: 2035
epoch: 1000
next table: 1830
cur table: 1842
epoch: 1000
next table: 1851
cur table: 1830
epoch: 1000
next table: 1927
cur table: 2108
epoch: 1000
next table: 1868
cur table: 1851
epoch: 1000
next table: 1842
cur table: 1868
epoch: 1000
next table: 2068
cur table: 1927
epoch: 1000
next table: 1844
cur table: 1842
epoch: 1000
next table: 1875
cur table: 1844
epoch: 1000
next table: 1984
cur table: 1875
epoch: 1000
next table: 2123
cur table: 2068
epoch: 1000
next table: 1860
cur table: 1984
epoch: 1000
next table: 1850
cur table: 1860
epoch: 1000
next table: 2125
cur table: 2123
epoch: 1000
next table: 1842
cur table: 1850
epoch: 1000
next table: 1842
cur table: 1842
epoch: 1000
next table: 2262
cur table: 2125
epoch: 1000
next table: 1851
cur table: 1842
epoch: 1000
next table: 1834
cur table: 1851
epoch: 1000
next table: 2046
cur table: 2262
epoch: 1000
next table: 1880
cur table: 1834
epoch: 1000
next table: 1858
cur table: 1880
epoch: 1000
next table: 2104
cur table: 2046
epoch: 1000
next table: 1869
cur table: 1858
epoch: 1000
next table: 1896
cur table: 1869
epoch: 1000
next table: 2070
cur table: 2104
epoch: 1000
next table: 1976
cur table: 1896
epoch: 1000
next table: 1888
cur table: 1976
epoch: 1000
next table: 1856
cur table: 1888
epoch: 1000
next table: 2116
cur table: 2070
epoch: 1000
next table: 1855
cur table: 1856
epoch: 1000
next table: 1836
cur table: 1855
epoch: 1000
next table: 2093
cur table: 2116
epoch: 1000
next table: 1864
cur table: 1836
epoch: 1000
next table: 1823
cur table: 1864
epoch: 1000
next table: 2031
cur table: 2093
epoch: 1000
next table: 1901
cur table: 1823
epoch: 1000
next table: 1852
cur table: 1901
epoch: 1000
next table: 1947
cur table: 2031
epoch: 1000
next table: 1853
cur table: 1852
epoch: 1000
next table: 1885
cur table: 1853
epoch: 1000
next table: 2062
cur table: 1947
epoch: 1000
next table: 2008
cur table: 1885
epoch: 1000
next table: 1986
cur table: 2062
epoch: 1000
next table: 1882
cur table: 2008
epoch: 1000
next table: 1888
cur table: 1882
epoch: 1000
next table: 1856
cur table: 1888
epoch: 1000
next table: 2159
cur table: 1986
epoch: 1000
next table: 1835
cur table: 1856
epoch: 1000
next table: 1758
cur table: 1835
epoch: 1000
next table: 2039
cur table: 2159
epoch: 1000
next table: 1851
cur table: 1758
epoch: 1000
next table: 1915
cur table: 1851
epoch: 1000
next table: 1982
cur table: 2039
epoch: 1000
next table: 1843
cur table: 1915
epoch: 1000
next table: 1899
cur table: 1843
epoch: 1000
next table: 2032
cur table: 1982
epoch: 1000
next table: 1888
cur table: 1899
epoch: 1000
next table: 2013
cur table: 1888
epoch: 1000
next table: 2028
cur table: 2032
epoch: 1000
next table: 1911
cur table: 2013
epoch: 1000
next table: 1903
cur table: 1911
epoch: 1000
next table: 2132
cur table: 2028
epoch: 1000
next table: 1863
cur table: 1903
epoch: 1000
next table: 1869
cur table: 1863
epoch: 1000
next table: 2128
cur table: 2132
epoch: 1000
next table: 1855
cur table: 1869
epoch: 1000
next table: 1879
cur table: 1855
epoch: 1000
next table: 2012
cur table: 2128
epoch: 1000
next table: 1883
cur table: 1879
epoch: 1000
next table: 1881
cur table: 1883
epoch: 1000
next table: 1970
cur table: 2012
epoch: 1000
next table: 1853
cur table: 1881
epoch: 1000
next table: 1933
cur table: 1853
epoch: 1000
next table: 2095
cur table: 1970
epoch: 1000
next table: 1985
cur table: 1933
epoch: 1000
next table: 1903
cur table: 1985
epoch: 1000
next table: 1958
cur table: 2095
epoch: 1000
next table: 1873
cur table: 1903
epoch: 1000
next table: 1874
cur table: 1873
epoch: 1000
next table: 2112
cur table: 1958
epoch: 1000
next table: 1886
cur table: 1874
epoch: 1000
next table: 1864
cur table: 1886
epoch: 1000
next table: 2042
cur table: 2112
epoch: 1000
next table: 1895
cur table: 1864
epoch: 1000
next table: 1874
cur table: 1895
epoch: 1000
next table: 1946
cur table: 2042
epoch: 1000
next table: 1887
cur table: 1874
epoch: 1000
next table: 2018
cur table: 1946
epoch: 1000
next table: 1856
cur table: 1887
epoch: 1000
next table: 1964
cur table: 1856
epoch: 1000
next table: 1986
cur table: 2018
epoch: 1000
next table: 1976
cur table: 1964
epoch: 1000
next table: 1913
cur table: 1976
epoch: 1000
next table: 2118
cur table: 1986
epoch: 1000
next table: 1852
cur table: 1913
epoch: 1000
next table: 1881
cur table: 1852
epoch: 1000
next table: 1868
cur table: 1881
epoch: 1000
next table: 2144
cur table: 2118
epoch: 1000
next table: 1897
cur table: 1868
epoch: 1000
next table: 1906
cur table: 1897
epoch: 1000
next table: 2003
cur table: 2144
epoch: 1000
next table: 1862
cur table: 1906
epoch: 1000
next table: 1861
cur table: 1862
epoch: 1000
next table: 2050
cur table: 2003
epoch: 1000
next table: 1865
cur table: 1861
epoch: 1000
next table: 1961
cur table: 1865
epoch: 1000
next table: 2035
cur table: 2050
epoch: 1000
next table: 1950
cur table: 1961
epoch: 1000
next table: 1869
cur table: 1950
epoch: 1000
next table: 2061
cur table: 2035
epoch: 1000
next table: 1886
cur table: 1869
epoch: 1000
next table: 1877
cur table: 1886
epoch: 1000
next table: 2119
cur table: 2061
epoch: 1000
next table: 1884
cur table: 1877
epoch: 1000
next table: 1917
cur table: 1884
epoch: 1000
next table: 2052
cur table: 2119
epoch: 1000
next table: 1954
cur table: 1917
epoch: 1000
next table: 1857
cur table: 1954
epoch: 1000
next table: 2004
cur table: 2052
epoch: 1000
next table: 1853
cur table: 1857
epoch: 1000
next table: 1873
cur table: 1853
epoch: 1000
next table: 2097
cur table: 2004
epoch: 1000
next table: 1888
cur table: 1873
epoch: 1000
next table: 1961
cur table: 1888
epoch: 1000
next table: 2067
cur table: 2097
epoch: 1000
next table: 1886
cur table: 1961
epoch: 1000
next table: 1876
cur table: 1886
epoch: 1000
next table: 2121
cur table: 2067
epoch: 1000
next table: 1874
cur table: 1876
epoch: 1000
next table: 1893
cur table: 1874
epoch: 1000
next table: 2082
cur table: 2121
epoch: 1000
next table: 1875
cur table: 1893
epoch: 1000
next table: 1919
cur table: 1875
epoch: 1000
next table: 2076
cur table: 2082
epoch: 1000
next table: 1877
cur table: 1919
epoch: 1000
next table: 1899
cur table: 1877
epoch: 1000
next table: 2065
cur table: 2076
epoch: 1000
next table: 1893
cur table: 1899
epoch: 1000
next table: 2005
cur table: 1893
epoch: 1000
next table: 1978
cur table: 2065
epoch: 1000
next table: 1906
cur table: 2005
epoch: 1000
next table: 1909
cur table: 1906
epoch: 1000
next table: 2107
cur table: 1978
epoch: 1000
next table: 1868
cur table: 1909
epoch: 1000
next table: 1910
cur table: 1868
epoch: 1000
next table: 2188
cur table: 2107
epoch: 1000
next table: 1842
cur table: 1910
epoch: 1000
next table: 1870
cur table: 1842
epoch: 1000
next table: 2035
cur table: 2188
epoch: 1000
next table: 1880
cur table: 1870
epoch: 1000
next table: 1864
cur table: 1880
epoch: 1000
next table: 1855
cur table: 1864
epoch: 1000
next table: 2226
cur table: 2035
epoch: 1000
next table: 1911
cur table: 1855
epoch: 1000
next table: 2004
cur table: 1911
epoch: 1000
next table: 2161
cur table: 2226
epoch: 1000
next table: 1898
cur table: 2004
epoch: 1000
next table: 1879
cur table: 1898
epoch: 1000
next table: 2273
cur table: 2161
epoch: 1000
next table: 1870
cur table: 1879
epoch: 1000
next table: 1890
cur table: 1870
epoch: 1000
next table: 2210
cur table: 2273
epoch: 1000
next table: 1873
cur table: 1890
epoch: 1000
next table: 1902
cur table: 1873
epoch: 1000
next table: 1883
cur table: 1902
epoch: 1000
next table: 2093
cur table: 2210
epoch: 1000
next table: 1921
cur table: 1883
epoch: 1000
next table: 1853
cur table: 1921
epoch: 1000
next table: 2024
cur table: 2093
epoch: 1000
next table: 1953
cur table: 1853
epoch: 1000
next table: 1962
cur table: 2024
epoch: 1000
next table: 1959
cur table: 1953
epoch: 1000
next table: 1916
cur table: 1959
epoch: 1000
next table: 1913
cur table: 1916
epoch: 1000
next table: 2165
cur table: 1962
epoch: 1000
next table: 1898
cur table: 1913
epoch: 1000
next table: 1893
cur table: 1898
epoch: 1000
next table: 2072
cur table: 2165
epoch: 1000
next table: 1906
cur table: 1893
epoch: 1000
next table: 1939
cur table: 1906
epoch: 1000
next table: 2066
cur table: 2072
epoch: 1000
next table: 1898
cur table: 1939
epoch: 1000
next table: 1853
cur table: 1898
epoch: 1000
next table: 2060
cur table: 2066
epoch: 1000
next table: 1853
cur table: 1853
epoch: 1000
next table: 1740
cur table: 1853
epoch: 1000
next table: 2074
cur table: 2060
epoch: 1000
next table: 1959
cur table: 1740
epoch: 1000
next table: 1894
cur table: 1959
epoch: 1000
next table: 2212
cur table: 2074
epoch: 1000
next table: 1909
cur table: 1894
epoch: 1000
next table: 1907
cur table: 1909
epoch: 1000
next table: 2272
cur table: 2212
epoch: 1000
next table: 1938
cur table: 1907
epoch: 1000
next table: 1894
cur table: 1938
epoch: 1000
next table: 1913
cur table: 1894
epoch: 1000
next table: 2222
cur table: 2272
epoch: 1000
next table: 1926
cur table: 1913
epoch: 1000
next table: 1827
cur table: 1926
epoch: 1000
next table: 2215
cur table: 2222
epoch: 1000
next table: 1869
cur table: 1827
epoch: 1000
next table: 2019
cur table: 1869
epoch: 1000
next table: 2061
cur table: 2215
epoch: 1000
next table: 1932
cur table: 2019
epoch: 1000
next table: 1916
cur table: 1932
epoch: 1000
next table: 2294
cur table: 2061
epoch: 1000
next table: 1908
cur table: 1916
epoch: 1000
next table: 1907
cur table: 1908
epoch: 1000
next table: 2102
cur table: 2294
epoch: 1000
next table: 1888
cur table: 1907
epoch: 1000
next table: 1953
cur table: 1888
epoch: 1000
next table: 2091
cur table: 2102
epoch: 1000
next table: 1888
cur table: 1953
epoch: 1000
next table: 1911
cur table: 1888
epoch: 1000
next table: 1863
cur table: 1911
epoch: 1000
next table: 2174
cur table: 2091
epoch: 1000
next table: 1977
cur table: 1863
epoch: 1000
next table: 1991
cur table: 1977
epoch: 1000
next table: 2027
cur table: 2174
epoch: 1000
next table: 1927
cur table: 1991
epoch: 1000
next table: 1911
cur table: 1927
epoch: 1000
next table: 2091
cur table: 2027
epoch: 1000
next table: 1936
cur table: 1911
epoch: 1000
next table: 1934
cur table: 1936
epoch: 1000
next table: 2416
cur table: 2091
epoch: 1000
next table: 1895
cur table: 1934
epoch: 1000
next table: 1958
cur table: 1895
epoch: 1000
next table: 2079
cur table: 2416
epoch: 1000
next table: 1930
cur table: 1958
epoch: 1000
next table: 1868
cur table: 1930
epoch: 1000
next table: 2019
cur table: 2079
epoch: 1000
next table: 1917
cur table: 1868
epoch: 1000
next table: 1997
cur table: 1917
epoch: 1000
next table: 2043
cur table: 2019
epoch: 1000
next table: 1924
cur table: 1997
epoch: 1000
next table: 1892
cur table: 1924
epoch: 1000
next table: 2203
cur table: 2043
epoch: 1000
next table: 1895
cur table: 1892
epoch: 1000
next table: 1891
cur table: 1895
epoch: 1000
next table: 2094
cur table: 2203
epoch: 1000
next table: 1906
cur table: 1891
epoch: 1000
next table: 1948
cur table: 1906
epoch: 1000
next table: 2079
cur table: 2094
epoch: 1000
next table: 1920
cur table: 1948
epoch: 1000
next table: 1840
cur table: 1920
epoch: 1000
next table: 1728
cur table: 1840
epoch: 1000
next table: 2093
cur table: 2079
epoch: 1000
next table: 1912
cur table: 1728
epoch: 1000
next table: 1892
cur table: 1912
epoch: 1000
next table: 2090
cur table: 2093
epoch: 1000
next table: 1914
cur table: 1892
epoch: 1000
next table: 1871
cur table: 1914
epoch: 1000
next table: 2248
cur table: 2090
epoch: 1000
next table: 1846
cur table: 1871
epoch: 1000
next table: 1918
cur table: 1846
epoch: 1000
next table: 2383
cur table: 2248
epoch: 1000
next table: 1807
cur table: 1918
epoch: 1000
next table: 1674
cur table: 1807
epoch: 1000
next table: 1633
cur table: 1674
epoch: 1000
next table: 2047
cur table: 2383
epoch: 1000
next table: 1672
cur table: 1633
epoch: 1000
next table: 1657
cur table: 1672
epoch: 1000
next table: 2416
cur table: 2047
epoch: 1000
next table: 1644
cur table: 1657
epoch: 1000
next table: 1708
cur table: 1644
epoch: 1000
next table: 1670
cur table: 1708
epoch: 1000
next table: 2254
cur table: 2416
epoch: 1000
next table: 1634
cur table: 1670
epoch: 1000
next table: 1643
cur table: 1634
epoch: 1000
next table: 2313
cur table: 2254
epoch: 1000
next table: 1639
cur table: 1643
epoch: 1000
next table: 1624
cur table: 1639
epoch: 1000
next table: 1654
cur table: 1624
epoch: 1000
next table: 2234
cur table: 2313
epoch: 1000
next table: 1673
cur table: 1654
epoch: 1000
next table: 1735
cur table: 1673
epoch: 1000
next table: 2263
cur table: 2234
epoch: 1000
next table: 1718
cur table: 1735
epoch: 1000
next table: 1619
cur table: 1718
epoch: 1000
next table: 2212
cur table: 2263
epoch: 1000
next table: 1690
cur table: 1619
epoch: 1000
next table: 1707
cur table: 1690
epoch: 1000
next table: 1661
cur table: 1707
epoch: 1000
next table: 2139
cur table: 2212
epoch: 1000
next table: 1710
cur table: 1661
epoch: 1000
next table: 1622
cur table: 1710
epoch: 1000
next table: 2320
cur table: 2139
epoch: 1000
next table: 1653
cur table: 1622
epoch: 1000
next table: 1655
cur table: 1653
epoch: 1000
next table: 2249
cur table: 2320
epoch: 1000
next table: 1703
cur table: 1655
epoch: 1000
next table: 1717
cur table: 1703
epoch: 1000
next table: 1710
cur table: 1717
epoch: 1000
next table: 2131
cur table: 2249
epoch: 1000
next table: 1670
cur table: 1710
epoch: 1000
next table: 1831
cur table: 1670
epoch: 1000
next table: 2141
cur table: 2131
epoch: 1000
next table: 1732
cur table: 1831
epoch: 1000
next table: 1650
cur table: 1732
epoch: 1000
next table: 2086
cur table: 2141
epoch: 1000
next table: 1637
cur table: 1650
epoch: 1000
next table: 1649
cur table: 1637
epoch: 1000
next table: 2286
cur table: 2086
epoch: 1000
next table: 1641
cur table: 1649
epoch: 1000
next table: 1683
cur table: 1641
epoch: 1000
next table: 1685
cur table: 1683
epoch: 1000
next table: 2240
cur table: 2286
epoch: 1000
next table: 1682
cur table: 1685
epoch: 1000
next table: 1718
cur table: 1682
epoch: 1000
next table: 2221
cur table: 2240
epoch: 1000
next table: 1738
cur table: 1718
epoch: 1000
next table: 1814
cur table: 1738
epoch: 1000
next table: 2159
cur table: 2221
epoch: 1000
next table: 1832
cur table: 1814
epoch: 1000
next table: 1755
cur table: 1832
epoch: 1000
next table: 1698
cur table: 1755
epoch: 1000
next table: 2413
cur table: 2159
epoch: 1000
next table: 1648
cur table: 1698
epoch: 1000
next table: 1659
cur table: 1648
epoch: 1000
next table: 2284
cur table: 2413
epoch: 1000
next table: 1777
cur table: 1659
epoch: 1000
next table: 1721
cur table: 1777
epoch: 1000
next table: 1647
cur table: 1721
epoch: 1000
next table: 2232
cur table: 2284
epoch: 1000
next table: 1661
cur table: 1647
epoch: 1000
next table: 1646
cur table: 1661
epoch: 1000
next table: 2281
cur table: 2232
epoch: 1000
next table: 1813
cur table: 1646
epoch: 1000
next table: 1741
cur table: 1813
epoch: 1000
next table: 2094
cur table: 2281
epoch: 1000
next table: 1729
cur table: 1741
epoch: 1000
next table: 1778
cur table: 1729
epoch: 1000
next table: 1771
cur table: 1778
epoch: 1000
next table: 2363
cur table: 2094
epoch: 1000
next table: 1845
cur table: 1771
epoch: 1000
next table: 1763
cur table: 1845
epoch: 1000
next table: 2216
cur table: 2363
epoch: 1000
next table: 1919
cur table: 1763
epoch: 1000
next table: 1824
cur table: 1919
epoch: 1000
next table: 2188
cur table: 2216
epoch: 1000
next table: 1903
cur table: 1824
epoch: 1000
next table: 1722
cur table: 1903
epoch: 1000
next table: 1865
cur table: 1722
epoch: 1000
next table: 2135
cur table: 2188
epoch: 1000
next table: 1766
cur table: 1865
epoch: 1000
next table: 1865
cur table: 1766
epoch: 1000
next table: 2153
cur table: 2135
epoch: 1000
next table: 1846
cur table: 1865
epoch: 1000
next table: 1807
cur table: 1846
epoch: 1000
next table: 2271
cur table: 2153
epoch: 1000
next table: 1829
cur table: 1807
epoch: 1000
next table: 1921
cur table: 1829
epoch: 1000
next table: 2181
cur table: 2271
epoch: 1000
next table: 1866
cur table: 1921
epoch: 1000
next table: 1893
cur table: 1866
epoch: 1000
next table: 2232
cur table: 2181
epoch: 1000
next table: 1770
cur table: 1893
epoch: 1000
next table: 1677
cur table: 1770
epoch: 1000
next table: 1905
cur table: 1677
epoch: 1000
next table: 2045
cur table: 2232
epoch: 1000
next table: 1857
cur table: 1905
epoch: 1000
next table: 1852
cur table: 1857
epoch: 1000
next table: 2137
cur table: 2045
epoch: 1000
next table: 1844
cur table: 1852
epoch: 1000
next table: 1832
cur table: 1844
epoch: 1000
next table: 2180
cur table: 2137
epoch: 1000
next table: 1874
cur table: 1832
epoch: 1000
next table: 1885
cur table: 1874
epoch: 1000
next table: 2077
cur table: 2180
epoch: 1000
next table: 1906
cur table: 1885
epoch: 1000
next table: 1908
cur table: 1906
epoch: 1000
next table: 2254
cur table: 2077
epoch: 1000
next table: 1741
cur table: 1908
epoch: 1000
next table: 1878
cur table: 1741
epoch: 1000
next table: 2089
cur table: 2254
epoch: 1000
next table: 1882
cur table: 1878
epoch: 1000
next table: 1748
cur table: 1882
epoch: 1000
next table: 1833
cur table: 1748
epoch: 1000
next table: 2235
cur table: 2089
epoch: 1000
next table: 1733
cur table: 1833
epoch: 1000
next table: 1897
cur table: 1733
epoch: 1000
next table: 2290
cur table: 2235
epoch: 1000
next table: 1928
cur table: 1897
epoch: 1000
next table: 1782
cur table: 1928
epoch: 1000
next table: 2103
cur table: 2290
epoch: 1000
next table: 1691
cur table: 1782
epoch: 1000
next table: 1782
cur table: 1691
epoch: 1000
next table: 2140
cur table: 2103
epoch: 1000
next table: 1756
cur table: 1782
epoch: 1000
next table: 1818
cur table: 1756
epoch: 1000
next table: 1785
cur table: 1818
epoch: 1000
next table: 2210
cur table: 2140
epoch: 1000
next table: 1717
cur table: 1785
epoch: 1000
next table: 1646
cur table: 1717
epoch: 1000
next table: 2494
cur table: 2210
epoch: 1000
next table: 1635
cur table: 1646
epoch: 1000
next table: 1627
cur table: 1635
epoch: 1000
next table: 1633
cur table: 1627
epoch: 1000
next table: 2381
cur table: 2494
epoch: 1000
next table: 1651
cur table: 1633
epoch: 1000
next table: 1666
cur table: 1651
epoch: 1000
next table: 1655
cur table: 1666
epoch: 1000
next table: 2332
cur table: 2381
epoch: 1000
next table: 1672
cur table: 1655
epoch: 1000
next table: 1633
cur table: 1672
epoch: 1000
next table: 2246
cur table: 2332
epoch: 1000
next table: 1659
cur table: 1633
epoch: 1000
next table: 1724
cur table: 1659
epoch: 1000
next table: 2029
cur table: 2246
epoch: 1000
next table: 1637
cur table: 1724
epoch: 1000
next table: 1646
cur table: 1637
epoch: 1000
next table: 2143
cur table: 2029
epoch: 1000
next table: 1641
cur table: 1646
epoch: 1000
next table: 1641
cur table: 1641
epoch: 1000
next table: 1662
cur table: 1641
epoch: 1000
next table: 2248
cur table: 2143
epoch: 1000
next table: 1657
cur table: 1662
epoch: 1000
next table: 1667
cur table: 1657
epoch: 1000
next table: 2279
cur table: 2248
epoch: 1000
next table: 1662
cur table: 1667
epoch: 1000
next table: 1664
cur table: 1662
epoch: 1000
next table: 2211
cur table: 2279
epoch: 1000
next table: 1698
cur table: 1664
epoch: 1000
next table: 1726
cur table: 1698
epoch: 1000
next table: 1655
cur table: 1726
epoch: 1000
next table: 2221
cur table: 2211
epoch: 1000
next table: 1662
cur table: 1655
epoch: 1000
next table: 1640
cur table: 1662
epoch: 1000
next table: 2429
cur table: 2221
epoch: 1000
next table: 1640
cur table: 1640
epoch: 1000
next table: 1661
cur table: 1640
epoch: 1000
next table: 1669
cur table: 1661
epoch: 1000
next table: 2267
cur table: 2429
epoch: 1000
next table: 1677
cur table: 1669
epoch: 1000
next table: 1645
cur table: 1677
epoch: 1000
next table: 2352
cur table: 2267
epoch: 1000
next table: 1658
cur table: 1645
epoch: 1000
next table: 1650
cur table: 1658
epoch: 1000
next table: 1739
cur table: 1650
epoch: 1000
next table: 2162
cur table: 2352
epoch: 1000
next table: 1695
cur table: 1739
epoch: 1000
next table: 1636
cur table: 1695
epoch: 1000
next table: 2262
cur table: 2162
epoch: 1000
next table: 1641
cur table: 1636
epoch: 1000
next table: 1641
cur table: 1641
epoch: 1000
next table: 1673
cur table: 1641
epoch: 1000
next table: 2339
cur table: 2262
epoch: 1000
next table: 1686
cur table: 1673
epoch: 1000
next table: 1700
cur table: 1686
epoch: 1000
next table: 2241
cur table: 2339
epoch: 1000
next table: 1683
cur table: 1700
epoch: 1000
next table: 1680
cur table: 1683
epoch: 1000
next table: 2228
cur table: 2241
epoch: 1000
next table: 1698
cur table: 1680
epoch: 1000
next table: 1723
cur table: 1698
epoch: 1000
next table: 2047
cur table: 2228
epoch: 1000
next table: 1679
cur table: 1723
epoch: 1000
next table: 1656
cur table: 1679
epoch: 1000
next table: 1634
cur table: 1656
epoch: 1000
next table: 2226
cur table: 2047
epoch: 1000
next table: 1643
cur table: 1634
epoch: 1000
next table: 1666
cur table: 1643
epoch: 1000
next table: 2160
cur table: 2226
epoch: 1000
next table: 1670
cur table: 1666
epoch: 1000
next table: 1674
cur table: 1670
epoch: 1000
next table: 2154
cur table: 2160
epoch: 1000
next table: 1671
cur table: 1674
epoch: 1000
next table: 1652
cur table: 1671
epoch: 1000
next table: 2212
cur table: 2154
epoch: 1000
next table: 1679
cur table: 1652
epoch: 1000
next table: 1719
cur table: 1679
epoch: 1000
next table: 1664
cur table: 1719
epoch: 1000
next table: 2137
cur table: 2212
epoch: 1000
next table: 1636
cur table: 1664
epoch: 1000
next table: 1641
cur table: 1636
epoch: 1000
next table: 2291
cur table: 2137
epoch: 1000
next table: 1647
cur table: 1641
epoch: 1000
next table: 1680
cur table: 1647
epoch: 1000
next table: 2255
cur table: 2291
epoch: 1000
next table: 1678
cur table: 1680
epoch: 1000
next table: 1659
cur table: 1678
epoch: 1000
next table: 1692
cur table: 1659
epoch: 1000
next table: 2303
cur table: 2255
epoch: 1000
next table: 1655
cur table: 1692
epoch: 1000
next table: 1714
cur table: 1655
epoch: 1000
next table: 2096
cur table: 2303
epoch: 1000
next table: 1686
cur table: 1714
epoch: 1000
next table: 1657
cur table: 1686
epoch: 1000
next table: 1627
cur table: 1657
epoch: 1000
next table: 2427
cur table: 2096
epoch: 1000
next table: 1663
cur table: 1627
epoch: 1000
next table: 1656
cur table: 1663
epoch: 1000
next table: 2430
cur table: 2427
epoch: 1000
next table: 1683
cur table: 1656
epoch: 1000
next table: 1686
cur table: 1683
epoch: 1000
next table: 1779
cur table: 1686
epoch: 1000
next table: 2282
cur table: 2430
epoch: 1000
next table: 1814
cur table: 1779
epoch: 1000
next table: 1889
cur table: 1814
epoch: 1000
next table: 2142
cur table: 2282
epoch: 1000
next table: 1908
cur table: 1889
epoch: 1000
next table: 1987
cur table: 1908
epoch: 1000
next table: 1667
cur table: 1987
epoch: 1000
next table: 2264
cur table: 2142
epoch: 1000
next table: 1661
cur table: 1667
epoch: 1000
next table: 1653
cur table: 1661
epoch: 1000
next table: 1687
cur table: 1653
epoch: 1000
next table: 2408
cur table: 2264
epoch: 1000
next table: 1721
cur table: 1687
epoch: 1000
next table: 1730
cur table: 1721
epoch: 1000
next table: 2307
cur table: 2408
epoch: 1000
next table: 1768
cur table: 1730
epoch: 1000
next table: 1771
cur table: 1768
epoch: 1000
next table: 1983
cur table: 2307
epoch: 1000
next table: 2008
cur table: 1771
epoch: 1000
next table: 1810
cur table: 2008
epoch: 1000
next table: 2148
cur table: 1983
epoch: 1000
next table: 1676
cur table: 1810
epoch: 1000
next table: 1657
cur table: 1676
epoch: 1000
next table: 1688
cur table: 1657
epoch: 1000
next table: 2456
cur table: 2148
epoch: 1000
next table: 1685
cur table: 1688
epoch: 1000
next table: 1704
cur table: 1685
epoch: 1000
next table: 2299
cur table: 2456
epoch: 1000
next table: 1731
cur table: 1704
epoch: 1000
next table: 1723
cur table: 1731
epoch: 1000
next table: 1753
cur table: 1723
epoch: 1000
next table: 2059
cur table: 2299
epoch: 1000
next table: 1795
cur table: 1753
epoch: 1000
next table: 1750
cur table: 1795
epoch: 1000
next table: 1972
cur table: 2059
epoch: 1000
next table: 1665
cur table: 1750
epoch: 1000
next table: 1661
cur table: 1665
epoch: 1000
next table: 2353
cur table: 1972
epoch: 1000
next table: 1670
cur table: 1661
epoch: 1000
next table: 1711
cur table: 1670
epoch: 1000
next table: 1664
cur table: 1711
epoch: 1000
next table: 2312
cur table: 2353
epoch: 1000
next table: 1711
cur table: 1664
epoch: 1000
next table: 1751
cur table: 1711
epoch: 1000
next table: 2105
cur table: 2312
epoch: 1000
next table: 1713
cur table: 1751
epoch: 1000
next table: 1781
cur table: 1713
epoch: 1000
next table: 1950
cur table: 2105
epoch: 1000
next table: 1794
cur table: 1781
epoch: 1000
next table: 1689
cur table: 1794
epoch: 1000
next table: 2227
cur table: 1950
epoch: 1000
next table: 1651
cur table: 1689
epoch: 1000
next table: 1650
cur table: 1651
epoch: 1000
next table: 1665
cur table: 1650
epoch: 1000
next table: 2275
cur table: 2227
epoch: 1000
next table: 1685
cur table: 1665
epoch: 1000
next table: 1725
cur table: 1685
epoch: 1000
next table: 2181
cur table: 2275
epoch: 1000
next table: 1752
cur table: 1725
epoch: 1000
next table: 1744
cur table: 1752
epoch: 1000
next table: 2066
cur table: 2181
epoch: 1000
next table: 1791
cur table: 1744
epoch: 1000
next table: 1801
cur table: 1791
epoch: 1000
next table: 1941
cur table: 2066
epoch: 1000
next table: 1709
cur table: 1801
epoch: 1000
next table: 1679
cur table: 1709
epoch: 1000
next table: 2300
cur table: 1941
epoch: 1000
next table: 1666
cur table: 1679
epoch: 1000
next table: 1679
cur table: 1666
epoch: 1000
next table: 1697
cur table: 1679
epoch: 1000
next table: 2297
cur table: 2300
epoch: 1000
next table: 1732
cur table: 1697
epoch: 1000
next table: 1729
cur table: 1732
epoch: 1000
next table: 2078
cur table: 2297
epoch: 1000
next table: 1766
cur table: 1729
epoch: 1000
next table: 1805
cur table: 1766
epoch: 1000
next table: 1994
cur table: 2078
epoch: 1000
next table: 1774
cur table: 1805
epoch: 1000
next table: 1707
cur table: 1774
epoch: 1000
next table: 2229
cur table: 1994
epoch: 1000
next table: 1680
cur table: 1707
epoch: 1000
next table: 1680
cur table: 1680
epoch: 1000
next table: 1669
cur table: 1680
epoch: 1000
next table: 2333
cur table: 2229
epoch: 1000
next table: 1700
cur table: 1669
epoch: 1000
next table: 1734
cur table: 1700
epoch: 1000
next table: 2230
cur table: 2333
epoch: 1000
next table: 1724
cur table: 1734
epoch: 1000
next table: 1763
cur table: 1724
epoch: 1000
next table: 2066
cur table: 2230
epoch: 1000
next table: 1801
cur table: 1763
epoch: 1000
next table: 1810
cur table: 1801
epoch: 1000
next table: 1986
cur table: 2066
epoch: 1000
next table: 1760
cur table: 1810
epoch: 1000
next table: 1693
cur table: 1760
epoch: 1000
next table: 1673
cur table: 1693
epoch: 1000
next table: 2271
cur table: 1986
epoch: 1000
next table: 1699
cur table: 1673
epoch: 1000
next table: 1732
cur table: 1699
epoch: 1000
next table: 2262
cur table: 2271
epoch: 1000
next table: 1778
cur table: 1732
epoch: 1000
next table: 1774
cur table: 1778
epoch: 1000
next table: 2112
cur table: 2262
epoch: 1000
next table: 1794
cur table: 1774
epoch: 1000
next table: 1816
cur table: 1794
epoch: 1000
next table: 2014
cur table: 2112
epoch: 1000
next table: 1867
cur table: 1816
epoch: 1000
next table: 1894
cur table: 1867
epoch: 1000
next table: 1719
cur table: 1894
epoch: 1000
next table: 2186
cur table: 2014
epoch: 1000
next table: 1771
cur table: 1719
epoch: 1000
next table: 1758
cur table: 1771
epoch: 1000
next table: 2343
cur table: 2186
epoch: 1000
next table: 1855
cur table: 1758
epoch: 1000
next table: 1891
cur table: 1855
epoch: 1000
next table: 1906
cur table: 1891
epoch: 1000
next table: 2177
cur table: 2343
epoch: 1000
next table: 1922
cur table: 1906
epoch: 1000
next table: 1956
cur table: 1922
epoch: 1000
next table: 2137
cur table: 2177
epoch: 1000
next table: 1997
cur table: 1956
epoch: 1000
next table: 1892
cur table: 1997
epoch: 1000
next table: 1984
cur table: 2137
epoch: 1000
next table: 1717
cur table: 1892
epoch: 1000
next table: 1699
cur table: 1717
epoch: 1000
next table: 2328
cur table: 1984
epoch: 1000
next table: 1783
cur table: 1699
epoch: 1000
next table: 1830
cur table: 1783
epoch: 1000
next table: 1863
cur table: 1830
epoch: 1000
next table: 2287
cur table: 2328
epoch: 1000
next table: 1894
cur table: 1863
epoch: 1000
next table: 1709
cur table: 1894
epoch: 1000
next table: 2166
cur table: 2287
epoch: 1000
next table: 1740
cur table: 1709
epoch: 1000
next table: 1736
cur table: 1740
epoch: 1000
next table: 2099
cur table: 2166
epoch: 1000
next table: 1757
cur table: 1736
epoch: 1000
next table: 1755
cur table: 1757
epoch: 1000
next table: 2019
cur table: 2099
epoch: 1000
next table: 1857
cur table: 1755
epoch: 1000
next table: 1813
cur table: 1857
epoch: 1000
next table: 1673
cur table: 1813
epoch: 1000
next table: 2468
cur table: 2019
epoch: 1000
next table: 1710
cur table: 1673
epoch: 1000
next table: 1865
cur table: 1710
epoch: 1000
next table: 1916
cur table: 1865
epoch: 1000
next table: 2338
cur table: 2468
epoch: 1000
next table: 1755
cur table: 1916
epoch: 1000
next table: 1769
cur table: 1755
epoch: 1000
next table: 2300
cur table: 2338
epoch: 1000
next table: 1831
cur table: 1769
epoch: 1000
next table: 1771
cur table: 1831
epoch: 1000
next table: 1704
cur table: 1771
epoch: 1000
next table: 2158
cur table: 2300
epoch: 1000
next table: 1701
cur table: 1704
epoch: 1000
next table: 1679
cur table: 1701
epoch: 1000
next table: 2253
cur table: 2158
epoch: 1000
next table: 1647
cur table: 1679
epoch: 1000
next table: 1654
cur table: 1647
epoch: 1000
next table: 1659
cur table: 1654
epoch: 1000
next table: 2434
cur table: 2253
epoch: 1000
next table: 1659
cur table: 1659
epoch: 1000
next table: 1686
cur table: 1659
epoch: 1000
next table: 2188
cur table: 2434
epoch: 1000
next table: 1840
cur table: 1686
epoch: 1000
next table: 1676
cur table: 1840
epoch: 1000
next table: 1698
cur table: 1676
epoch: 1000
next table: 2064
cur table: 2188
epoch: 1000
next table: 1706
cur table: 1698
epoch: 1000
next table: 1727
cur table: 1706
epoch: 1000
next table: 1886
cur table: 2064
epoch: 1000
next table: 1692
cur table: 1727
epoch: 1000
next table: 1690
cur table: 1692
epoch: 1000
next table: 2070
cur table: 1886
epoch: 1000
next table: 1663
cur table: 1690
epoch: 1000
next table: 1688
cur table: 1663
epoch: 1000
next table: 2223
cur table: 2070
epoch: 1000
next table: 1666
cur table: 1688
epoch: 1000
next table: 1707
cur table: 1666
epoch: 1000
next table: 1716
cur table: 1707
epoch: 1000
next table: 2199
cur table: 2223
epoch: 1000
next table: 1714
cur table: 1716
epoch: 1000
next table: 1740
cur table: 1714
epoch: 1000
next table: 2046
cur table: 2199
epoch: 1000
next table: 1945
cur table: 1740
epoch: 1000
next table: 1991
cur table: 1945
epoch: 1000
next table: 2049
cur table: 2046
epoch: 1000
next table: 1962
cur table: 1991
epoch: 1000
next table: 1963
cur table: 1962
epoch: 1000
next table: 1996
cur table: 2049
epoch: 1000
next table: 1730
cur table: 1963
epoch: 1000
next table: 1648
cur table: 1730
epoch: 1000
next table: 2121
cur table: 1996
epoch: 1000
next table: 1621
cur table: 1648
epoch: 1000
next table: 1597
cur table: 1621
epoch: 1000
next table: 1995
cur table: 2121
epoch: 1000
next table: 1676
cur table: 1597
epoch: 1000
next table: 1682
cur table: 1676
epoch: 1000
next table: 2011
cur table: 1995
epoch: 1000
next table: 1687
cur table: 1682
epoch: 1000
next table: 1716
cur table: 1687
epoch: 1000
next table: 2013
cur table: 2011
epoch: 1000
next table: 1735
cur table: 1716
epoch: 1000
next table: 1760
cur table: 1735
epoch: 1000
next table: 1917
cur table: 2013
epoch: 1000
next table: 1739
cur table: 1760
epoch: 1000
next table: 1725
cur table: 1739
epoch: 1000
next table: 2042
cur table: 1917
epoch: 1000
next table: 1693
cur table: 1725
epoch: 1000
next table: 1690
cur table: 1693
epoch: 1000
next table: 1693
cur table: 1690
epoch: 1000
next table: 2226
cur table: 2042
epoch: 1000
next table: 1688
cur table: 1693
epoch: 1000
next table: 1689
cur table: 1688
epoch: 1000
next table: 2137
cur table: 2226
epoch: 1000
next table: 1730
cur table: 1689
epoch: 1000
next table: 1723
cur table: 1730
epoch: 1000
next table: 1986
cur table: 2137
epoch: 1000
next table: 1729
cur table: 1723
epoch: 1000
next table: 1747
cur table: 1729
epoch: 1000
next table: 1919
cur table: 1986
epoch: 1000
next table: 1767
cur table: 1747
epoch: 1000
next table: 1735
cur table: 1767
epoch: 1000
next table: 2013
cur table: 1919
epoch: 1000
next table: 1684
cur table: 1735
epoch: 1000
next table: 1679
cur table: 1684
epoch: 1000
next table: 2225
cur table: 2013
epoch: 1000
next table: 1645
cur table: 1679
epoch: 1000
next table: 1677
cur table: 1645
epoch: 1000
next table: 1697
cur table: 1677
epoch: 1000
next table: 2150
cur table: 2225
epoch: 1000
next table: 1715
cur table: 1697
epoch: 1000
next table: 1746
cur table: 1715
epoch: 1000
next table: 2083
cur table: 2150
epoch: 1000
next table: 1781
cur table: 1746
epoch: 1000
next table: 1764
cur table: 1781
epoch: 1000
next table: 2147
cur table: 2083
epoch: 1000
next table: 1781
cur table: 1764
epoch: 1000
next table: 1790
cur table: 1781
epoch: 1000
next table: 1908
cur table: 2147
epoch: 1000
next table: 1700
cur table: 1790
epoch: 1000
next table: 1668
cur table: 1700
epoch: 1000
next table: 2070
cur table: 1908
epoch: 1000
next table: 1655
cur table: 1668
epoch: 1000
next table: 1677
cur table: 1655
epoch: 1000
next table: 2119
cur table: 2070
epoch: 1000
next table: 1676
cur table: 1677
epoch: 1000
next table: 1687
cur table: 1676
epoch: 1000
next table: 2069
cur table: 2119
epoch: 1000
next table: 1732
cur table: 1687
epoch: 1000
next table: 1735
cur table: 1732
epoch: 1000
next table: 1745
cur table: 1735
epoch: 1000
next table: 2072
cur table: 2069
epoch: 1000
next table: 1777
cur table: 1745
epoch: 1000
next table: 1781
cur table: 1777
epoch: 1000
next table: 1935
cur table: 2072
epoch: 1000
next table: 1757
cur table: 1781
epoch: 1000
next table: 1727
cur table: 1757
epoch: 1000
next table: 2220
cur table: 1935
epoch: 1000
next table: 1679
cur table: 1727
epoch: 1000
next table: 1686
cur table: 1679
epoch: 1000
next table: 2172
cur table: 2220
epoch: 1000
next table: 1692
cur table: 1686
epoch: 1000
next table: 1719
cur table: 1692
epoch: 1000
next table: 1711
cur table: 1719
epoch: 1000
next table: 2116
cur table: 2172
epoch: 1000
next table: 1704
cur table: 1711
epoch: 1000
next table: 1756
cur table: 1704
epoch: 1000
next table: 2137
cur table: 2116
epoch: 1000
next table: 1772
cur table: 1756
epoch: 1000
next table: 1795
cur table: 1772
epoch: 1000
next table: 1988
cur table: 2137
epoch: 1000
next table: 1757
cur table: 1795
epoch: 1000
next table: 1717
cur table: 1757
epoch: 1000
next table: 2033
cur table: 1988
epoch: 1000
next table: 1700
cur table: 1717
epoch: 1000
next table: 1687
cur table: 1700
epoch: 1000
next table: 1699
cur table: 1687
epoch: 1000
next table: 2240
cur table: 2033
epoch: 1000
next table: 1721
cur table: 1699
epoch: 1000
next table: 1700
cur table: 1721
epoch: 1000
next table: 2089
cur table: 2240
epoch: 1000
next table: 1726
cur table: 1700
epoch: 1000
next table: 1753
cur table: 1726
epoch: 1000
next table: 2066
cur table: 2089
epoch: 1000
next table: 1765
cur table: 1753
epoch: 1000
next table: 1734
cur table: 1765
epoch: 1000
next table: 2037
cur table: 2066
epoch: 1000
next table: 1787
cur table: 1734
epoch: 1000
next table: 1726
cur table: 1787
epoch: 1000
next table: 1683
cur table: 1726
epoch: 1000
next table: 2155
cur table: 2037
epoch: 1000
next table: 1669
cur table: 1683
epoch: 1000
next table: 1678
cur table: 1669
epoch: 1000
next table: 2181
cur table: 2155
epoch: 1000
next table: 1711
cur table: 1678
epoch: 1000
next table: 1725
cur table: 1711
epoch: 1000
next table: 2040
cur table: 2181
epoch: 1000
next table: 1721
cur table: 1725
epoch: 1000
next table: 1756
cur table: 1721
epoch: 1000
next table: 2087
cur table: 2040
epoch: 1000
next table: 1781
cur table: 1756
epoch: 1000
next table: 1769
cur table: 1781
epoch: 1000
next table: 1808
cur table: 1769
epoch: 1000
next table: 2096
cur table: 2087
epoch: 1000
next table: 1733
cur table: 1808
epoch: 1000
next table: 1684
cur table: 1733
epoch: 1000
next table: 2066
cur table: 2096
epoch: 1000
next table: 1678
cur table: 1684
epoch: 1000
next table: 1668
cur table: 1678
epoch: 1000
next table: 2186
cur table: 2066
epoch: 1000
next table: 1739
cur table: 1668
epoch: 1000
next table: 1707
cur table: 1739
epoch: 1000
next table: 2133
cur table: 2186
epoch: 1000
next table: 1779
cur table: 1707
epoch: 1000
next table: 1762
cur table: 1779
epoch: 1000
next table: 1977
cur table: 2133
epoch: 1000
next table: 1752
cur table: 1762
epoch: 1000
next table: 1805
cur table: 1752
epoch: 1000
next table: 1852
cur table: 1977
epoch: 1000
next table: 1751
cur table: 1805
epoch: 1000
next table: 1692
cur table: 1751
epoch: 1000
next table: 2065
cur table: 1852
epoch: 1000
next table: 1681
cur table: 1692
epoch: 1000
next table: 1660
cur table: 1681
epoch: 1000
next table: 1738
cur table: 1660
epoch: 1000
next table: 2118
cur table: 2065
epoch: 1000
next table: 1743
cur table: 1738
epoch: 1000
next table: 1745
cur table: 1743
epoch: 1000
next table: 2046
cur table: 2118
epoch: 1000
next table: 1784
cur table: 1745
epoch: 1000
next table: 1860
cur table: 1784
epoch: 1000
next table: 2012
cur table: 2046
epoch: 1000
next table: 1834
cur table: 1860
epoch: 1000
next table: 1791
cur table: 1834
epoch: 1000
next table: 1874
cur table: 2012
epoch: 1000
next table: 1724
cur table: 1791
epoch: 1000
next table: 1750
cur table: 1724
epoch: 1000
next table: 2180
cur table: 1874
epoch: 1000
next table: 1667
cur table: 1750
epoch: 1000
next table: 1688
cur table: 1667
epoch: 1000
next table: 2099
cur table: 2180
epoch: 1000
next table: 1741
cur table: 1688
epoch: 1000
next table: 1730
cur table: 1741
epoch: 1000
next table: 1800
cur table: 1730
epoch: 1000
next table: 2054
cur table: 2099
epoch: 1000
next table: 1754
cur table: 1800
epoch: 1000
next table: 1812
cur table: 1754
epoch: 1000
next table: 2037
cur table: 2054
epoch: 1000
next table: 1766
cur table: 1812
epoch: 1000
next table: 1775
cur table: 1766
epoch: 1000
next table: 2030
cur table: 2037
epoch: 1000
next table: 1814
cur table: 1775
Heartbeat CPU 0 instructions: 10000003 cycles: 2854697 heartbeat IPC: 3.503 cumulative IPC: 3.503 (Simulation time: 0 hr 5 min 45 sec) 
epoch: 1000
next table: 1704
cur table: 1814
epoch: 1000
next table: 2089
cur table: 2030
epoch: 1000
next table: 1734
cur table: 1704
epoch: 1000
next table: 1728
cur table: 1734
epoch: 1000
next table: 2167
cur table: 2089
epoch: 1000
next table: 1685
cur table: 1728
epoch: 1000
next table: 1692
cur table: 1685
epoch: 1000
next table: 1737
cur table: 1692
epoch: 1000
next table: 2141
cur table: 2167
epoch: 1000
next table: 1733
cur table: 1737
epoch: 1000
next table: 1734
cur table: 1733
epoch: 1000
next table: 2043
cur table: 2141
epoch: 1000
next table: 1762
cur table: 1734
epoch: 1000
next table: 1702
cur table: 1762
epoch: 1000
next table: 2014
cur table: 2043
epoch: 1000
next table: 1822
cur table: 1702
epoch: 1000
next table: 1710
cur table: 1822
epoch: 1000
next table: 2099
cur table: 2014
epoch: 1000
next table: 1720
cur table: 1710
epoch: 1000
next table: 1682
cur table: 1720
epoch: 1000
next table: 1715
cur table: 1682
epoch: 1000
next table: 2121
cur table: 2099
epoch: 1000
next table: 1679
cur table: 1715
epoch: 1000
next table: 1696
cur table: 1679
epoch: 1000
next table: 1977
cur table: 2121
epoch: 1000
next table: 1737
cur table: 1696
epoch: 1000
next table: 1779
cur table: 1737
epoch: 1000
next table: 2240
cur table: 1977
epoch: 1000
next table: 1761
cur table: 1779
epoch: 1000
next table: 1815
cur table: 1761
epoch: 1000
next table: 1773
cur table: 1815
epoch: 1000
next table: 2180
cur table: 2240
epoch: 1000
next table: 1837
cur table: 1773
epoch: 1000
next table: 1769
cur table: 1837
epoch: 1000
next table: 2191
cur table: 2180
epoch: 1000
next table: 1756
cur table: 1769
epoch: 1000
next table: 1787
cur table: 1756
epoch: 1000
next table: 1794
cur table: 1787
epoch: 1000
next table: 2269
cur table: 2191
epoch: 1000
next table: 1739
cur table: 1794
epoch: 1000
next table: 1771
cur table: 1739
epoch: 1000
next table: 2141
cur table: 2269
epoch: 1000
next table: 1774
cur table: 1771
epoch: 1000
next table: 1786
cur table: 1774
epoch: 1000
next table: 1968
cur table: 2141
epoch: 1000
next table: 1750
cur table: 1786
epoch: 1000
next table: 1755
cur table: 1750
epoch: 1000
next table: 1933
cur table: 1968
epoch: 1000
next table: 1742
cur table: 1755
epoch: 1000
next table: 1697
cur table: 1742
epoch: 1000
next table: 2009
cur table: 1933
epoch: 1000
next table: 1688
cur table: 1697
epoch: 1000
next table: 1677
cur table: 1688
epoch: 1000
next table: 2063
cur table: 2009
epoch: 1000
next table: 1677
cur table: 1677
epoch: 1000
next table: 1722
cur table: 1677
epoch: 1000
next table: 2008
cur table: 2063
epoch: 1000
next table: 1687
cur table: 1722
epoch: 1000
next table: 1743
cur table: 1687
epoch: 1000
next table: 1988
cur table: 2008
epoch: 1000
next table: 1749
cur table: 1743
epoch: 1000
next table: 1714
cur table: 1749
epoch: 1000
next table: 1742
cur table: 1714
epoch: 1000
next table: 2112
cur table: 1988
epoch: 1000
next table: 1765
cur table: 1742
epoch: 1000
next table: 1798
cur table: 1765
epoch: 1000
next table: 2054
cur table: 2112
epoch: 1000
next table: 1708
cur table: 1798
epoch: 1000
next table: 1674
cur table: 1708
epoch: 1000
next table: 2237
cur table: 2054
epoch: 1000
next table: 1658
cur table: 1674
epoch: 1000
next table: 1694
cur table: 1658
epoch: 1000
next table: 1699
cur table: 1694
epoch: 1000
next table: 2114
cur table: 2237
epoch: 1000
next table: 1787
cur table: 1699
epoch: 1000
next table: 1794
cur table: 1787
epoch: 1000
next table: 2080
cur table: 2114
epoch: 1000
next table: 1820
cur table: 1794
epoch: 1000
next table: 1857
cur table: 1820
epoch: 1000
next table: 1902
cur table: 2080
epoch: 1000
next table: 1831
cur table: 1857
epoch: 1000
next table: 1808
cur table: 1831
epoch: 1000
next table: 2143
cur table: 1902
epoch: 1000
next table: 1762
cur table: 1808
epoch: 1000
next table: 1806
cur table: 1762
epoch: 1000
next table: 2149
cur table: 2143
epoch: 1000
next table: 1797
cur table: 1806
epoch: 1000
next table: 1743
cur table: 1797
epoch: 1000
next table: 1951
cur table: 2149
epoch: 1000
next table: 1782
cur table: 1743
epoch: 1000
next table: 1747
cur table: 1782
epoch: 1000
next table: 1950
cur table: 1951
epoch: 1000
next table: 1736
cur table: 1747
epoch: 1000
next table: 1773
cur table: 1736
epoch: 1000
next table: 1873
cur table: 1950
epoch: 1000
next table: 1757
cur table: 1773
epoch: 1000
next table: 1740
cur table: 1757
epoch: 1000
next table: 1891
cur table: 1873
epoch: 1000
next table: 1699
cur table: 1740
epoch: 1000
next table: 1675
cur table: 1699
epoch: 1000
next table: 1981
cur table: 1891
epoch: 1000
next table: 1659
cur table: 1675
epoch: 1000
next table: 1673
cur table: 1659
epoch: 1000
next table: 1968
cur table: 1981
epoch: 1000
next table: 1690
cur table: 1673
epoch: 1000
next table: 1724
cur table: 1690
epoch: 1000
next table: 1991
cur table: 1968
epoch: 1000
next table: 1741
cur table: 1724
epoch: 1000
next table: 1720
cur table: 1741
epoch: 1000
next table: 1929
cur table: 1991
epoch: 1000
next table: 1754
cur table: 1720
epoch: 1000
next table: 1755
cur table: 1754
epoch: 1000
next table: 1868
cur table: 1929
epoch: 1000
next table: 1764
cur table: 1755
epoch: 1000
next table: 1712
cur table: 1764
epoch: 1000
next table: 2027
cur table: 1868
epoch: 1000
next table: 1693
cur table: 1712
epoch: 1000
next table: 1700
cur table: 1693
epoch: 1000
next table: 1978
cur table: 2027
epoch: 1000
next table: 1701
cur table: 1700
epoch: 1000
next table: 1752
cur table: 1701
epoch: 1000
next table: 1906
cur table: 1978
epoch: 1000
next table: 1726
cur table: 1752
epoch: 1000
next table: 1715
cur table: 1726
epoch: 1000
next table: 1911
cur table: 1906
epoch: 1000
next table: 1767
cur table: 1715
epoch: 1000
next table: 1774
cur table: 1767
epoch: 1000
next table: 1892
cur table: 1911
epoch: 1000
next table: 1756
cur table: 1774
epoch: 1000
next table: 1716
cur table: 1756
epoch: 1000
next table: 2056
cur table: 1892
epoch: 1000
next table: 1699
cur table: 1716
epoch: 1000
next table: 1682
cur table: 1699
epoch: 1000
next table: 2042
cur table: 2056
epoch: 1000
next table: 1737
cur table: 1682
epoch: 1000
next table: 1688
cur table: 1737
epoch: 1000
next table: 1922
cur table: 2042
epoch: 1000
next table: 1711
cur table: 1688
epoch: 1000
next table: 1716
cur table: 1711
epoch: 1000
next table: 1884
cur table: 1922
epoch: 1000
next table: 1765
cur table: 1716
epoch: 1000
next table: 1790
cur table: 1765
epoch: 1000
next table: 1917
cur table: 1884
epoch: 1000
next table: 1828
cur table: 1790
epoch: 1000
next table: 1783
cur table: 1828
epoch: 1000
next table: 2060
cur table: 1917
epoch: 1000
next table: 1712
cur table: 1783
epoch: 1000
next table: 1713
cur table: 1712
epoch: 1000
next table: 2020
cur table: 2060
epoch: 1000
next table: 1744
cur table: 1713
epoch: 1000
next table: 1689
cur table: 1744
epoch: 1000
next table: 1910
cur table: 2020
epoch: 1000
next table: 1720
cur table: 1689
epoch: 1000
next table: 1725
cur table: 1720
epoch: 1000
next table: 1887
cur table: 1910
epoch: 1000
next table: 1725
cur table: 1725
epoch: 1000
next table: 1779
cur table: 1725
epoch: 1000
next table: 1946
cur table: 1887
epoch: 1000
next table: 1810
cur table: 1779
epoch: 1000
next table: 1751
cur table: 1810
epoch: 1000
next table: 1956
cur table: 1946
epoch: 1000
next table: 1715
cur table: 1751
epoch: 1000
next table: 1690
cur table: 1715
epoch: 1000
next table: 2114
cur table: 1956
epoch: 1000
next table: 1714
cur table: 1690
epoch: 1000
next table: 1722
cur table: 1714
epoch: 1000
next table: 1723
cur table: 1722
epoch: 1000
next table: 2130
cur table: 2114
epoch: 1000
next table: 1767
cur table: 1723
epoch: 1000
next table: 1739
cur table: 1767
epoch: 1000
next table: 2042
cur table: 2130
epoch: 1000
next table: 1696
cur table: 1739
epoch: 1000
next table: 1800
cur table: 1696
epoch: 1000
next table: 1934
cur table: 2042
epoch: 1000
next table: 1793
cur table: 1800
epoch: 1000
next table: 1725
cur table: 1793
epoch: 1000
next table: 2006
cur table: 1934
epoch: 1000
next table: 1710
cur table: 1725
epoch: 1000
next table: 1738
cur table: 1710
epoch: 1000
next table: 2029
cur table: 2006
epoch: 1000
next table: 1709
cur table: 1738
epoch: 1000
next table: 1744
cur table: 1709
epoch: 1000
next table: 1944
cur table: 2029
epoch: 1000
next table: 1671
cur table: 1744
epoch: 1000
next table: 1678
cur table: 1671
epoch: 1000
next table: 1891
cur table: 1944
epoch: 1000
next table: 1679
cur table: 1678
epoch: 1000
next table: 1689
cur table: 1679
epoch: 1000
next table: 1869
cur table: 1891
epoch: 1000
next table: 1729
cur table: 1689
epoch: 1000
next table: 1772
cur table: 1729
epoch: 1000
next table: 2022
cur table: 1869
epoch: 1000
next table: 1690
cur table: 1772
epoch: 1000
next table: 1674
cur table: 1690
epoch: 1000
next table: 1671
cur table: 1674
epoch: 1000
next table: 2287
cur table: 2022
epoch: 1000
next table: 1662
cur table: 1671
epoch: 1000
next table: 1714
cur table: 1662
epoch: 1000
next table: 2191
cur table: 2287
epoch: 1000
next table: 1737
cur table: 1714
epoch: 1000
next table: 1708
cur table: 1737
epoch: 1000
next table: 1848
cur table: 2191
epoch: 1000
next table: 1707
cur table: 1708
epoch: 1000
next table: 1758
cur table: 1707
epoch: 1000
next table: 1839
cur table: 1848
epoch: 1000
next table: 1783
cur table: 1758
epoch: 1000
next table: 1818
cur table: 1839
epoch: 1000
next table: 1737
cur table: 1783
epoch: 1000
next table: 1703
cur table: 1737
epoch: 1000
next table: 1932
cur table: 1818
epoch: 1000
next table: 1693
cur table: 1703
epoch: 1000
next table: 1681
cur table: 1693
epoch: 1000
next table: 1868
cur table: 1932
epoch: 1000
next table: 1686
cur table: 1681
epoch: 1000
next table: 1723
cur table: 1686
epoch: 1000
next table: 1834
cur table: 1868
epoch: 1000
next table: 1708
cur table: 1723
epoch: 1000
next table: 1868
cur table: 1834
epoch: 1000
next table: 1705
cur table: 1708
epoch: 1000
next table: 1740
cur table: 1705
epoch: 1000
next table: 1876
cur table: 1868
epoch: 1000
next table: 1792
cur table: 1740
epoch: 1000
next table: 1759
cur table: 1792
epoch: 1000
next table: 1875
cur table: 1876
epoch: 1000
next table: 1706
cur table: 1759
epoch: 1000
next table: 1702
cur table: 1706
epoch: 1000
next table: 1938
cur table: 1875
epoch: 1000
next table: 1707
cur table: 1702
epoch: 1000
next table: 1713
cur table: 1707
epoch: 1000
next table: 1953
cur table: 1938
epoch: 1000
next table: 1736
cur table: 1713
epoch: 1000
next table: 1711
cur table: 1736
epoch: 1000
next table: 1859
cur table: 1953
epoch: 1000
next table: 1712
cur table: 1711
epoch: 1000
next table: 1755
cur table: 1712
epoch: 1000
next table: 1854
cur table: 1859
epoch: 1000
next table: 1789
cur table: 1755
epoch: 1000
next table: 1830
cur table: 1854
epoch: 1000
next table: 1749
cur table: 1789
epoch: 1000
next table: 1721
cur table: 1749
epoch: 1000
next table: 2008
cur table: 1830
epoch: 1000
next table: 1709
cur table: 1721
epoch: 1000
next table: 1710
cur table: 1709
epoch: 1000
next table: 1989
cur table: 2008
epoch: 1000
next table: 1703
cur table: 1710
epoch: 1000
next table: 1729
cur table: 1703
epoch: 1000
next table: 1887
cur table: 1989
epoch: 1000
next table: 1738
cur table: 1729
epoch: 1000
next table: 1715
cur table: 1738
epoch: 1000
next table: 1898
cur table: 1887
epoch: 1000
next table: 1771
cur table: 1715
epoch: 1000
next table: 1765
cur table: 1771
epoch: 1000
next table: 1848
cur table: 1898
epoch: 1000
next table: 1748
cur table: 1765
epoch: 1000
next table: 1726
cur table: 1748
epoch: 1000
next table: 2030
cur table: 1848
epoch: 1000
next table: 1713
cur table: 1726
epoch: 1000
next table: 1736
cur table: 1713
epoch: 1000
next table: 1996
cur table: 2030
epoch: 1000
next table: 1704
cur table: 1736
epoch: 1000
next table: 1732
cur table: 1704
epoch: 1000
next table: 1925
cur table: 1996
epoch: 1000
next table: 1756
cur table: 1732
epoch: 1000
next table: 1733
cur table: 1756
epoch: 1000
next table: 1907
cur table: 1925
epoch: 1000
next table: 1778
cur table: 1733
epoch: 1000
next table: 1862
cur table: 1907
epoch: 1000
next table: 1780
cur table: 1778
epoch: 1000
next table: 1709
cur table: 1780
epoch: 1000
next table: 1740
cur table: 1709
epoch: 1000
next table: 2075
cur table: 1862
epoch: 1000
next table: 1717
cur table: 1740
epoch: 1000
next table: 1729
cur table: 1717
epoch: 1000
next table: 1996
cur table: 2075
epoch: 1000
next table: 1741
cur table: 1729
epoch: 1000
next table: 1732
cur table: 1741
epoch: 1000
next table: 1957
cur table: 1996
epoch: 1000
next table: 1742
cur table: 1732
epoch: 1000
next table: 1918
cur table: 1957
epoch: 1000
next table: 1731
cur table: 1742
epoch: 1000
next table: 1792
cur table: 1731
epoch: 1000
next table: 1881
cur table: 1918
epoch: 1000
next table: 1771
cur table: 1792
epoch: 1000
next table: 1705
cur table: 1771
epoch: 1000
next table: 1958
cur table: 1881
epoch: 1000
next table: 1714
cur table: 1705
epoch: 1000
next table: 1729
cur table: 1714
epoch: 1000
next table: 1993
cur table: 1958
epoch: 1000
next table: 1721
cur table: 1729
epoch: 1000
next table: 1748
cur table: 1721
epoch: 1000
next table: 1951
cur table: 1993
epoch: 1000
next table: 1732
cur table: 1748
epoch: 1000
next table: 1721
cur table: 1732
epoch: 1000
next table: 1867
cur table: 1951
epoch: 1000
next table: 1778
cur table: 1721
epoch: 1000
next table: 1810
cur table: 1778
epoch: 1000
next table: 1888
cur table: 1867
epoch: 1000
next table: 1791
cur table: 1810
epoch: 1000
next table: 1767
cur table: 1791
epoch: 1000
next table: 2096
cur table: 1888
epoch: 1000
next table: 1720
cur table: 1767
epoch: 1000
next table: 1754
cur table: 1720
epoch: 1000
next table: 2027
cur table: 2096
epoch: 1000
next table: 1735
cur table: 1754
epoch: 1000
next table: 1759
cur table: 1735
epoch: 1000
next table: 1906
cur table: 2027
epoch: 1000
next table: 1753
cur table: 1759
epoch: 1000
next table: 1727
cur table: 1753
epoch: 1000
next table: 1887
cur table: 1906
epoch: 1000
next table: 1784
cur table: 1727
epoch: 1000
next table: 1882
cur table: 1887
epoch: 1000
next table: 1783
cur table: 1784
epoch: 1000
next table: 1754
cur table: 1783
epoch: 1000
next table: 1731
cur table: 1754
epoch: 1000
next table: 2108
cur table: 1882
epoch: 1000
next table: 1717
cur table: 1731
epoch: 1000
next table: 1736
cur table: 1717
epoch: 1000
next table: 2031
cur table: 2108
epoch: 1000
next table: 1762
cur table: 1736
epoch: 1000
next table: 1759
cur table: 1762
epoch: 1000
next table: 1968
cur table: 2031
epoch: 1000
next table: 1731
cur table: 1759
epoch: 1000
next table: 1750
cur table: 1731
epoch: 1000
next table: 1902
cur table: 1968
epoch: 1000
next table: 1796
cur table: 1750
epoch: 1000
next table: 1957
cur table: 1902
epoch: 1000
next table: 1793
cur table: 1796
epoch: 1000
next table: 1739
cur table: 1793
epoch: 1000
next table: 2042
cur table: 1957
epoch: 1000
next table: 1718
cur table: 1739
epoch: 1000
next table: 1731
cur table: 1718
epoch: 1000
next table: 1996
cur table: 2042
epoch: 1000
next table: 1753
cur table: 1731
epoch: 1000
next table: 1756
cur table: 1753
epoch: 1000
next table: 1913
cur table: 1996
epoch: 1000
next table: 1792
cur table: 1756
epoch: 1000
next table: 1711
cur table: 1792
epoch: 1000
next table: 1852
cur table: 1913
epoch: 1000
next table: 1817
cur table: 1711
epoch: 1000
next table: 1771
cur table: 1817
epoch: 1000
next table: 1896
cur table: 1852
epoch: 1000
next table: 1723
cur table: 1771
epoch: 1000
next table: 1722
cur table: 1723
epoch: 1000
next table: 2015
cur table: 1896
epoch: 1000
next table: 1731
cur table: 1722
epoch: 1000
next table: 1748
cur table: 1731
epoch: 1000
next table: 2004
cur table: 2015
epoch: 1000
next table: 1754
cur table: 1748
epoch: 1000
next table: 1754
cur table: 1754
epoch: 1000
next table: 1867
cur table: 2004
epoch: 1000
next table: 1742
cur table: 1754
epoch: 1000
next table: 1775
cur table: 1742
epoch: 1000
next table: 1891
cur table: 1867
epoch: 1000
next table: 1794
cur table: 1775
epoch: 1000
next table: 1900
cur table: 1891
epoch: 1000
next table: 1770
cur table: 1794
epoch: 1000
next table: 1760
cur table: 1770
epoch: 1000
next table: 2050
cur table: 1900
epoch: 1000
next table: 1744
cur table: 1760
epoch: 1000
next table: 1772
cur table: 1744
epoch: 1000
next table: 2014
cur table: 2050
epoch: 1000
next table: 1719
cur table: 1772
epoch: 1000
next table: 1750
cur table: 1719
epoch: 1000
next table: 1958
cur table: 2014
epoch: 1000
next table: 1766
cur table: 1750
epoch: 1000
next table: 1739
cur table: 1766
epoch: 1000
next table: 1884
cur table: 1958
epoch: 1000
next table: 1802
cur table: 1739
epoch: 1000
next table: 1787
cur table: 1802
epoch: 1000
next table: 1888
cur table: 1884
epoch: 1000
next table: 1749
cur table: 1787
epoch: 1000
next table: 1725
cur table: 1749
epoch: 1000
next table: 2001
cur table: 1888
epoch: 1000
next table: 1757
cur table: 1725
epoch: 1000
next table: 1752
cur table: 1757
epoch: 1000
next table: 1995
cur table: 2001
epoch: 1000
next table: 1761
cur table: 1752
epoch: 1000
next table: 1770
cur table: 1761
epoch: 1000
next table: 1915
cur table: 1995
epoch: 1000
next table: 1770
cur table: 1770
epoch: 1000
next table: 1787
cur table: 1770
epoch: 1000
next table: 1907
cur table: 1915
epoch: 1000
next table: 1806
cur table: 1787
epoch: 1000
next table: 1857
cur table: 1907
epoch: 1000
next table: 1779
cur table: 1806
epoch: 1000
next table: 1772
cur table: 1779
epoch: 1000
next table: 2052
cur table: 1857
epoch: 1000
next table: 1767
cur table: 1772
epoch: 1000
next table: 1787
cur table: 1767
epoch: 1000
next table: 2009
cur table: 2052
epoch: 1000
next table: 1749
cur table: 1787
epoch: 1000
next table: 1796
cur table: 1749
epoch: 1000
next table: 1959
cur table: 2009
epoch: 1000
next table: 1810
cur table: 1796
epoch: 1000
next table: 1756
cur table: 1810
epoch: 1000
next table: 1913
cur table: 1959
epoch: 1000
next table: 1844
cur table: 1756
epoch: 1000
next table: 1795
cur table: 1844
epoch: 1000
next table: 1959
cur table: 1913
epoch: 1000
next table: 1745
cur table: 1795
epoch: 1000
next table: 1748
cur table: 1745
epoch: 1000
next table: 2029
cur table: 1959
epoch: 1000
next table: 1767
cur table: 1748
epoch: 1000
next table: 1779
cur table: 1767
epoch: 1000
next table: 2001
cur table: 2029
epoch: 1000
next table: 1796
cur table: 1779
epoch: 1000
next table: 1793
cur table: 1796
epoch: 1000
next table: 1944
cur table: 2001
epoch: 1000
next table: 1783
cur table: 1793
epoch: 1000
next table: 1801
cur table: 1783
epoch: 1000
next table: 1940
cur table: 1944
epoch: 1000
next table: 1852
cur table: 1801
epoch: 1000
next table: 1818
cur table: 1852
epoch: 1000
next table: 2066
cur table: 1940
epoch: 1000
next table: 1789
cur table: 1818
epoch: 1000
next table: 1775
cur table: 1789
epoch: 1000
next table: 2154
cur table: 2066
epoch: 1000
next table: 1818
cur table: 1775
epoch: 1000
next table: 1789
cur table: 1818
epoch: 1000
next table: 2061
cur table: 2154
epoch: 1000
next table: 1856
cur table: 1789
epoch: 1000
next table: 1814
cur table: 1856
epoch: 1000
next table: 2034
cur table: 2061
epoch: 1000
next table: 1815
cur table: 1814
epoch: 1000
next table: 1843
cur table: 1815
epoch: 1000
next table: 1917
cur table: 2034
epoch: 1000
next table: 1832
cur table: 1843
epoch: 1000
next table: 1780
cur table: 1832
epoch: 1000
next table: 1980
cur table: 1917
epoch: 1000
next table: 1778
cur table: 1780
epoch: 1000
next table: 1819
cur table: 1778
epoch: 1000
next table: 2021
cur table: 1980
epoch: 1000
next table: 1807
cur table: 1819
epoch: 1000
next table: 1822
cur table: 1807
epoch: 1000
next table: 1935
cur table: 2021
epoch: 1000
next table: 1845
cur table: 1822
epoch: 1000
next table: 1872
cur table: 1845
epoch: 1000
next table: 1925
cur table: 1935
epoch: 1000
next table: 1858
cur table: 1872
epoch: 1000
next table: 1893
cur table: 1858
epoch: 1000
next table: 1901
cur table: 1925
epoch: 1000
next table: 1843
cur table: 1893
epoch: 1000
next table: 1846
cur table: 1843
epoch: 1000
next table: 2054
cur table: 1901
epoch: 1000
next table: 1835
cur table: 1846
epoch: 1000
next table: 1870
cur table: 1835
epoch: 1000
next table: 2047
cur table: 2054
epoch: 1000
next table: 1844
cur table: 1870
epoch: 1000
next table: 1903
cur table: 1844
epoch: 1000
next table: 1999
cur table: 2047
epoch: 1000
next table: 1891
cur table: 1903
epoch: 1000
next table: 1862
cur table: 1891
epoch: 1000
next table: 1879
cur table: 1999
epoch: 1000
next table: 1918
cur table: 1862
epoch: 1000
next table: 1887
cur table: 1918
epoch: 1000
next table: 1847
cur table: 1879
epoch: 1000
next table: 1894
cur table: 1887
epoch: 1000
next table: 1848
cur table: 1894
epoch: 1000
next table: 1987
cur table: 1847
epoch: 1000
next table: 1864
cur table: 1848
epoch: 1000
next table: 1962
cur table: 1987
epoch: 1000
next table: 1864
cur table: 1864
epoch: 1000
next table: 1894
cur table: 1864
epoch: 1000
next table: 1905
cur table: 1962
epoch: 1000
next table: 1904
cur table: 1894
epoch: 1000
next table: 1898
cur table: 1904
epoch: 1000
next table: 1971
cur table: 1905
epoch: 1000
next table: 1904
cur table: 1898
epoch: 1000
next table: 1906
cur table: 1904
epoch: 1000
next table: 1940
cur table: 1971
epoch: 1000
next table: 1884
cur table: 1906
epoch: 1000
next table: 1868
cur table: 1884
epoch: 1000
next table: 2065
cur table: 1940
epoch: 1000
next table: 1889
cur table: 1868
epoch: 1000
next table: 1906
cur table: 1889
epoch: 1000
next table: 2086
cur table: 2065
epoch: 1000
next table: 1895
cur table: 1906
epoch: 1000
next table: 1912
cur table: 1895
epoch: 1000
next table: 2020
cur table: 2086
epoch: 1000
next table: 1940
cur table: 1912
epoch: 1000
next table: 1914
cur table: 1940
epoch: 1000
next table: 1905
cur table: 2020
epoch: 1000
next table: 1932
cur table: 1914
epoch: 1000
next table: 1934
cur table: 1932
epoch: 1000
next table: 1960
cur table: 1905
epoch: 1000
next table: 1910
cur table: 1934
epoch: 1000
next table: 1882
cur table: 1910
epoch: 1000
next table: 2026
cur table: 1960
epoch: 1000
next table: 1943
cur table: 1882
epoch: 1000
next table: 1898
cur table: 1943
epoch: 1000
next table: 1943
cur table: 2026
epoch: 1000
next table: 1925
cur table: 1898
epoch: 1000
next table: 1923
cur table: 1925
epoch: 1000
next table: 1969
cur table: 1943
epoch: 1000
next table: 1925
cur table: 1923
epoch: 1000
next table: 1945
cur table: 1925
epoch: 1000
next table: 1970
cur table: 1969
epoch: 1000
next table: 1956
cur table: 1945
epoch: 1000
next table: 1931
cur table: 1956
epoch: 1000
next table: 2081
cur table: 1970
epoch: 1000
next table: 1921
cur table: 1931
epoch: 1000
next table: 1963
cur table: 1921
epoch: 1000
next table: 2045
cur table: 2081
epoch: 1000
next table: 1908
cur table: 1963
epoch: 1000
next table: 1943
cur table: 1908
epoch: 1000
next table: 2009
cur table: 2045
[...]
cur table: 2146
epoch: 1000
next table: 2092
cur table: 2056
epoch: 1000
next table: 2162
cur table: 2092
epoch: 1000
next table: 2192
cur table: 2199
epoch: 1000
next table: 2069
cur table: 2162
epoch: 1000
next table: 2078
cur table: 2069
epoch: 1000
next table: 2054
cur table: 2078
epoch: 1000
next table: 2290
cur table: 2192
epoch: 1000
next table: 2024
cur table: 2054
epoch: 1000
next table: 2050
cur table: 2024
epoch: 1000
next table: 2165
cur table: 2290
epoch: 1000
next table: 2063
cur table: 2050
epoch: 1000
next table: 2067
cur table: 2063
epoch: 1000
next table: 2277
cur table: 2165
epoch: 1000
next table: 2065
cur table: 2067
epoch: 1000
next table: 2178
cur table: 2065
epoch: 1000
next table: 2211
cur table: 2277
epoch: 1000
next table: 2123
cur table: 2178
epoch: 1000
next table: 2042
cur table: 2123
epoch: 1000
next table: 2243
cur table: 2211
epoch: 1000
next table: 1986
cur table: 2042
epoch: 1000
next table: 2029
cur table: 1986
epoch: 1000
next table: 2098
cur table: 2243
epoch: 1000
next table: 1942
cur table: 2029
epoch: 1000
next table: 1670
cur table: 1942
epoch: 1000
next table: 1877
cur table: 2098
epoch: 1000
next table: 1709
cur table: 1670
epoch: 1000
next table: 1707
cur table: 1709
epoch: 1000
next table: 1961
cur table: 1877
epoch: 1000
next table: 1709
cur table: 1707
epoch: 1000
next table: 1768
cur table: 1709
epoch: 1000
next table: 1941
cur table: 1961
epoch: 1000
next table: 1760
cur table: 1768
epoch: 1000
next table: 1795
cur table: 1760
epoch: 1000
next table: 2117
cur table: 1941
epoch: 1000
next table: 1927
cur table: 1795
epoch: 1000
next table: 2032
cur table: 1927
epoch: 1000
next table: 2301
cur table: 2117
epoch: 1000
next table: 2100
cur table: 2032
Heartbeat CPU 0 instructions: 100000002 cycles: 177725988 heartbeat IPC: 0.304306 cumulative IPC: 0.305854 (Simulation time: 1 hr 10 min 17 sec) 
Finished CPU 0 instructions: 50000003 cycles: 163476907 cumulative IPC: 0.305854 (Simulation time: 1 hr 10 min 17 sec) 

ChampSim completed all CPUs

Region of Interest Statistics

CPU 0 cumulative IPC: 0.305854 instructions: 50000003 cycles: 163476907
ITLB TOTAL     ACCESS:    9075092  HIT:    9075092  MISS:          0  HIT %:        100  MISS %:          0   MPKI: 0
ITLB LOAD TRANSLATION ACCESS:    9075092  HIT:    9075092  MISS:          0  HIT %:        100  MISS %:          0   MPKI: 0
ITLB PREFETCH  REQUESTED:          0  ISSUED:          0  USEFUL:          0  USELESS:          0
ITLB USEFUL LOAD PREFETCHES:          0 PREFETCH ISSUED TO LOWER LEVEL:          0  ACCURACY: -nan
ITLB TIMELY PREFETCHES:          0 LATE PREFETCHES: 0 DROPPED PREFETCHES: 0
ITLB PREFETCHES SAME FILL-ORIGIN LEVEL: 0 DIFFERENT FILL-ORIGIN LEVEL: 0
ITLB AVERAGE MISS LATENCY: -nan cycles
ITLB RQ	ACCESS:    9643581	FORWARD:          0	MERGED:     568489	TO_CACHE:    9075092

Revised Interactions: positive negative neutral
ITLB_interactions 0 0 0 -nan -nan -nan
DTLB TOTAL     ACCESS:    7430542  HIT:    6213655  MISS:    1216887  HIT %:    83.6232  MISS %:    16.3768   MPKI: 24.3377
DTLB LOAD TRANSLATION ACCESS:    7430542  HIT:    6213655  MISS:    1216887  HIT %:    83.6232  MISS %:    16.3768   MPKI: 24.3377
DTLB PREFETCH  REQUESTED:          0  ISSUED:          0  USEFUL:          0  USELESS:          0
DTLB USEFUL LOAD PREFETCHES:          0 PREFETCH ISSUED TO LOWER LEVEL:          0  ACCURACY: -nan
DTLB TIMELY PREFETCHES:          0 LATE PREFETCHES: 0 DROPPED PREFETCHES: 0
DTLB PREFETCHES SAME FILL-ORIGIN LEVEL: 0 DIFFERENT FILL-ORIGIN LEVEL: 0
DTLB AVERAGE MISS LATENCY: 50.6446 cycles
DTLB RQ	ACCESS:    8640090	FORWARD:          0	MERGED:    1185923	TO_CACHE:    7454167

Revised Interactions: positive negative neutral
DTLB_interactions 0 0 0 -nan -nan -nan
STLB TOTAL     ACCESS:    3392312  HIT:    2274232  MISS:    1118080  HIT %:    67.0408  MISS %:    32.9592   MPKI: 22.3616
STLB LOAD TRANSLATION ACCESS:    1216887  HIT:      98814  MISS:    1118073  HIT %:    8.12023  MISS %:    91.8798   MPKI: 22.3615
STLB TRANSLATION FROM L1D PREFETCHER ACCESS:    2175425  HIT:    2175418  MISS:          7  HIT %:    99.9997  MISS %: 0.000321776   MPKI: 0.00014
STLB PREFETCH  REQUESTED:          0  ISSUED:          0  USEFUL:          6  USELESS:          0
STLB USEFUL LOAD PREFETCHES:          6 PREFETCH ISSUED TO LOWER LEVEL:          0  ACCURACY: inf
STLB TIMELY PREFETCHES:          6 LATE PREFETCHES: 0 DROPPED PREFETCHES: 0
STLB PREFETCHES SAME FILL-ORIGIN LEVEL: 0 DIFFERENT FILL-ORIGIN LEVEL: 0
STLB AVERAGE MISS LATENCY: 45.2314 cycles
STLB RQ	ACCESS:    4325331	FORWARD:          0	MERGED:     933018	TO_CACHE:    3392313

Revised Interactions: positive negative neutral
STLB_interactions 0 0 0 -nan -nan -nan
STLB Hit, L1D data hit: 0
STLB Hit, L2C data hit: 0
STLB Hit, LLC data hit: 0
STLB Hit, LLC data miss: 0
STLB STLB hints to L2: 0
L1D TOTAL     ACCESS:   11326812  HIT:    6135020  MISS:    5191792  HIT %:    54.1637  MISS %:    45.8363   MPKI: 103.836
L1D LOAD      ACCESS:    6380399  HIT:    3891950  MISS:    2488449  HIT %:    60.9985  MISS %:    39.0015   MPKI: 49.769
L1D RFO       ACCESS:    2217136  HIT:    2147488  MISS:      69648  HIT %:    96.8587  MISS %:    3.14135   MPKI: 1.39296
L1D PREFETCH  ACCESS:    2729277  HIT:      95582  MISS:    2633695  HIT %:     3.5021  MISS %:    96.4979   MPKI: 52.6739
L1D PREFETCH  REQUESTED:    6216888  ISSUED:    6216888  USEFUL:     133672  USELESS:    2500066
L1D USEFUL LOAD PREFETCHES:     133672 PREFETCH ISSUED TO LOWER LEVEL:    2633942  ACCURACY: 5.07498
L1D TIMELY PREFETCHES:     133672 LATE PREFETCHES: 11964 DROPPED PREFETCHES: 0
L1D PREFETCHES SAME FILL-ORIGIN LEVEL: 2633942 DIFFERENT FILL-ORIGIN LEVEL: 0
L1D AVERAGE MISS LATENCY: 4612.19 cycles
L1D RQ	ACCESS:   12346849	FORWARD:          0	MERGED:    5771959	TO_CACHE:    6422952
L1D WQ	ACCESS:    2217146	FORWARD:     151938	MERGED:          8	TO_CACHE:    2217138
L1D PQ	ACCESS:    3108444	FORWARD:          0	MERGED:          0	TO_CACHE:    3108444

Revised Interactions: positive negative neutral
L1D_interactions 0 0 0 -nan -nan -nan
L1D UNIQUE REGIONS ACCESSED: 0
L1D REGIONS CONFLICTS: 0
L1D Cross Page Prefetch Requests: 0
L1D Same Page Prefetch Requests: 6922515
L1D ROI Sum of L1D PQ occupancy: 40608538
L1D PREFETCHES PUSHED FROM L2C: 0
L1I TOTAL     ACCESS:    9643580  HIT:    9643580  MISS:          0  HIT %:        100  MISS %:          0   MPKI: 0
L1I LOAD      ACCESS:    9643580  HIT:    9643580  MISS:          0  HIT %:        100  MISS %:          0   MPKI: 0
L1I PREFETCH  REQUESTED:          0  ISSUED:          0  USEFUL:          0  USELESS:          0
L1I USEFUL LOAD PREFETCHES:          0 PREFETCH ISSUED TO LOWER LEVEL:          0  ACCURACY: -nan
L1I TIMELY PREFETCHES:          0 LATE PREFETCHES: 0 DROPPED PREFETCHES: 0
L1I PREFETCHES SAME FILL-ORIGIN LEVEL: 0 DIFFERENT FILL-ORIGIN LEVEL: 0
L1I AVERAGE MISS LATENCY: -nan cycles
L1I RQ	ACCESS:   14310628	FORWARD:          0	MERGED:    4667047	TO_CACHE:    9643581

Revised Interactions: positive negative neutral
L1I_interactions 0 0 0 -nan -nan -nan
BTB TOTAL     ACCESS:    6608312  HIT:    6608304  MISS:          8  HIT %:    99.9999  MISS %: 0.00012106   MPKI: 0.00016
BTB BRANCH_DIRECT_JUMP	ACCESS:    1137286  HIT:    1137284  MISS:          2
BTB BRANCH_INDIRECT	ACCESS:          0  HIT:          0  MISS:          0
BTB BRANCH_CONDITIONAL	ACCESS:    3253882  HIT:    3253878  MISS:          4
BTB BRANCH_DIRECT_CALL	ACCESS:    1108572  HIT:    1108571  MISS:          1
BTB BRANCH_INDIRECT_CALL	ACCESS:          0  HIT:          0  MISS:          0
BTB BRANCH_RETURN	ACCESS:    1108572  HIT:    1108571  MISS:          1
BTB BRANCH_OTHER ACCESS:          0  HIT:          0  MISS:          0

L2C TOTAL     ACCESS:    7570898  HIT:    3554928  MISS:    4015970  HIT %:    46.9552  MISS %:    53.0448   MPKI: 80.3194
L2C LOAD      ACCESS:    2488449  HIT:     973463  MISS:    1514986  HIT %:    39.1193  MISS %:    60.8807   MPKI: 30.2997
L2C DATA LOAD MPKI: 30.2997
L2C INSTRUCTION LOAD MPKI: 0
L2C RFO       ACCESS:      69402  HIT:       2382  MISS:      67020  HIT %:    3.43218  MISS %:    96.5678   MPKI: 1.3404
L2C PREFETCH  ACCESS:    2633941  HIT:    1119259  MISS:    1514682  HIT %:    42.4937  MISS %:    57.5063   MPKI: 30.2936
L2C DATA PREFETCH MPKI: 30.2936
L2C INSTRUCTION PREFETCH MPKI: 0
L2C WRITEBACK ACCESS:    1108551  HIT:     575975  MISS:     532576  HIT %:    51.9575  MISS %:    48.0425   MPKI: 10.6515
L2C LOAD TRANSLATION ACCESS:    1270541  HIT:     883845  MISS:     386696  HIT %:    69.5645  MISS %:    30.4355   MPKI: 7.73392
L2C TRANSLATION FROM L1D PREFETCHER ACCESS:         14  HIT:          4  MISS:         10  HIT %:    28.5714  MISS %:    71.4286   MPKI: 0.0002
L2C PREFETCH  REQUESTED:          0  ISSUED:          0  USEFUL:       9599  USELESS:    1505146
L2C USEFUL LOAD PREFETCHES:       9599 PREFETCH ISSUED TO LOWER LEVEL:    1514683  ACCURACY: 0.63373
L2C TIMELY PREFETCHES:       9599 LATE PREFETCHES: 0 DROPPED PREFETCHES: 0
L2C PREFETCHES SAME FILL-ORIGIN LEVEL: 0 DIFFERENT FILL-ORIGIN LEVEL: 0
L2C AVERAGE MISS LATENCY: 102.258 cycles
L2C RQ	ACCESS:    3828407	FORWARD:          0	MERGED:          0	TO_CACHE:    3828407
L2C WQ	ACCESS:    1108551	FORWARD:          0	MERGED:          0	TO_CACHE:    1108551
L2C PQ	ACCESS:    2633942	FORWARD:          0	MERGED:          0	TO_CACHE:    2633942

Revised Interactions: positive negative neutral
L2C_interactions 798 1514967 808380 0.0343352 65.1838 34.7818
L2C Instructions Evicting Data 0
L2C Translations Evicting Data 321633
L2C Data Evicting Data 2816735
L2C Instructions Evicting Instructions 0
L2C Translations Evicting Instructions 0
L2C Data Evicting Instructions 0
L2C Instructions Evicting Translations 0
L2C Translations Evicting Translations 65073
L2C Data Evicting Translations 279953
L2C Dense regions hint from L2: 0
PSCL5 TOTAL     ACCESS:    1118080  HIT:    1118080  MISS:          0  HIT %:        100  MISS %:          0   MPKI: 0
PSCL5 LOAD TRANSLATION ACCESS:    1118073  HIT:    1118073  MISS:          0  HIT %:        100  MISS %:          0   MPKI: 0
PSCL5 TRANSLATION FROM L1D PREFETCHER ACCESS:          7  HIT:          7  MISS:          0  HIT %:        100  MISS %:          0   MPKI: 0
PSCL5 PREFETCH  REQUESTED:          0  ISSUED:          0  USEFUL:          0  USELESS:          0
PSCL5 USEFUL LOAD PREFETCHES:          0 PREFETCH ISSUED TO LOWER LEVEL:          0  ACCURACY: -nan
PSCL5 TIMELY PREFETCHES:          0 LATE PREFETCHES: 0 DROPPED PREFETCHES: 0
PSCL5 PREFETCHES SAME FILL-ORIGIN LEVEL: 0 DIFFERENT FILL-ORIGIN LEVEL: 0

Revised Interactions: positive negative neutral
PSCL5_interactions 0 0 0 -nan -nan -nan
PSCL4 TOTAL     ACCESS:    1118080  HIT:    1118080  MISS:          0  HIT %:        100  MISS %:          0   MPKI: 0
PSCL4 LOAD TRANSLATION ACCESS:    1118073  HIT:    1118073  MISS:          0  HIT %:        100  MISS %:          0   MPKI: 0
PSCL4 TRANSLATION FROM L1D PREFETCHER ACCESS:          7  HIT:          7  MISS:          0  HIT %:        100  MISS %:          0   MPKI: 0
PSCL4 PREFETCH  REQUESTED:          0  ISSUED:          0  USEFUL:          0  USELESS:          0
PSCL4 USEFUL LOAD PREFETCHES:          0 PREFETCH ISSUED TO LOWER LEVEL:          0  ACCURACY: -nan
PSCL4 TIMELY PREFETCHES:          0 LATE PREFETCHES: 0 DROPPED PREFETCHES: 0
PSCL4 PREFETCHES SAME FILL-ORIGIN LEVEL: 0 DIFFERENT FILL-ORIGIN LEVEL: 0

Revised Interactions: positive negative neutral
PSCL4_interactions 0 0 0 -nan -nan -nan
PSCL3 TOTAL     ACCESS:    1118080  HIT:    1118080  MISS:          0  HIT %:        100  MISS %:          0   MPKI: 0
PSCL3 LOAD TRANSLATION ACCESS:    1118073  HIT:    1118073  MISS:          0  HIT %:        100  MISS %:          0   MPKI: 0
PSCL3 TRANSLATION FROM L1D PREFETCHER ACCESS:          7  HIT:          7  MISS:          0  HIT %:        100  MISS %:          0   MPKI: 0
PSCL3 PREFETCH  REQUESTED:          0  ISSUED:          0  USEFUL:          0  USELESS:          0
PSCL3 USEFUL LOAD PREFETCHES:          0 PREFETCH ISSUED TO LOWER LEVEL:          0  ACCURACY: -nan
PSCL3 TIMELY PREFETCHES:          0 LATE PREFETCHES: 0 DROPPED PREFETCHES: 0
PSCL3 PREFETCHES SAME FILL-ORIGIN LEVEL: 0 DIFFERENT FILL-ORIGIN LEVEL: 0

Revised Interactions: positive negative neutral
PSCL3_interactions 0 0 0 -nan -nan -nan
PSCL2 TOTAL     ACCESS:    1118080  HIT:     965605  MISS:     152475  HIT %:    86.3628  MISS %:    13.6372   MPKI: 3.0495
PSCL2 LOAD TRANSLATION ACCESS:    1118080  HIT:     965605  MISS:     152475  HIT %:    86.3628  MISS %:    13.6372   MPKI: 3.0495
PSCL2 PREFETCH  REQUESTED:          0  ISSUED:          0  USEFUL:          0  USELESS:          0
PSCL2 USEFUL LOAD PREFETCHES:          0 PREFETCH ISSUED TO LOWER LEVEL:          0  ACCURACY: -nan
PSCL2 TIMELY PREFETCHES:          0 LATE PREFETCHES: 0 DROPPED PREFETCHES: 0
PSCL2 PREFETCHES SAME FILL-ORIGIN LEVEL: 0 DIFFERENT FILL-ORIGIN LEVEL: 0

Revised Interactions: positive negative neutral
PSCL2_interactions 0 0 0 -nan -nan -nan
LLC TOTAL     ACCESS:    4592240  HIT:    2511226  MISS:    2081014  HIT %:    54.6841  MISS %:    45.3159   MPKI: 41.6203
LLC LOAD      ACCESS:    1514986  HIT:     778631  MISS:     736355  HIT %:    51.3953  MISS %:    48.6047   MPKI: 14.7271
LLC RFO       ACCESS:      67020  HIT:      65285  MISS:       1735  HIT %:    97.4112  MISS %:    2.58878   MPKI: 0.0347
LLC PREFETCH  ACCESS:    1514682  HIT:     580400  MISS:     934282  HIT %:    38.3183  MISS %:    61.6817   MPKI: 18.6856
LLC WRITEBACK ACCESS:    1108846  HIT:     706653  MISS:     402193  HIT %:    63.7287  MISS %:    36.2713   MPKI: 8.04386
LLC LOAD TRANSLATION ACCESS:     386696  HIT:     380254  MISS:       6442  HIT %:    98.3341  MISS %:    1.66591   MPKI: 0.12884
LLC TRANSLATION FROM L1D PREFETCHER ACCESS:         10  HIT:          3  MISS:          7  HIT %:         30  MISS %:         70   MPKI: 0.00014
LLC PREFETCH  REQUESTED:          0  ISSUED:          0  USEFUL:     508393  USELESS:     339213
LLC USEFUL LOAD PREFETCHES:     508393 PREFETCH ISSUED TO LOWER LEVEL:     934283  ACCURACY: 54.4153
LLC TIMELY PREFETCHES:     508393 LATE PREFETCHES: 0 DROPPED PREFETCHES: 0
LLC PREFETCHES SAME FILL-ORIGIN LEVEL: 0 DIFFERENT FILL-ORIGIN LEVEL: 0
LLC AVERAGE MISS LATENCY: 146.718 cycles
LLC RQ	ACCESS:    1968713	FORWARD:          0	MERGED:          0	TO_CACHE:    1968713
LLC WQ	ACCESS:    1108846	FORWARD:          0	MERGED:          0	TO_CACHE:    1108846
LLC PQ	ACCESS:    1514683	FORWARD:          0	MERGED:          0	TO_CACHE:    1514683

Revised Interactions: positive negative neutral
LLC_interactions 42 846854 123280 0.00432911 87.2887 12.707
LLC Dense regions hint to LLC: 0

RAW hits: 955096
Loads Generated: 13301945
Loads sent to L1D: 12346849
Stores Generated: 2217144
Stores sent to L1D: 2217146
Major fault: 0 Minor fault: 42623
Allocated PAGES: 42623

stream: 
stream:times selected: 5449416
stream:pref_filled: 3904460
stream:pref_useful: 125077
stream:pref_late: 20833
stream:misses: 866277
stream:misses_by_poll: 0

CS: 
CS:times selected: 1173837
CS:pref_filled: 939559
CS:pref_useful: 700
CS:pref_late: 70
CS:misses: 74065
CS:misses_by_poll: 315

CPLX: 
CPLX:times selected: 5434937
CPLX:pref_filled: 806153
CPLX:pref_useful: 93449
CPLX:pref_late: 9270
CPLX:misses: 3851468
CPLX:misses_by_poll: 389

NL_L1: 
NL:times selected: 28084
NL:pref_filled: 20669
NL:pref_useful: 44
NL:pref_late: 5
NL:misses: 24478
NL:misses_by_poll: 0

total selections: 12086274
total_filled: 2633695
total_useful: 133672
total_late: 30178
total_polluted: 704
total_misses_after_warmup: 2531003
conflicts: 1
Degree Incremented Times: 0
Degree Decremented Times: 198196

L1 IP Table Write Accesses: 6422953
L1 IP Table Read Accesses: 6422952
L1 RST Write Accesses: 2738588
L1 RST Read Accesses: 5477176
L1 CSPT Write Accesses: 2738588
L1 CSPT Read Accesses: 5474088
L1 RR Filter Tag Write Accesses: 3108444
L1 RR Filter Tag Read Accesses: 105942028
L1 IP Table Tag Write Accesses: 6422953
L1 IP Table Tag Read Accesses: 6422953
L1 RST Tag Write Accesses: 0
L1 RST Tag Read Accesses: 24572142
L1 RR Filter Write Accesses: 0
L1 RR Filter Read Accesses: 3333076
test: 3031651
L2 IP Table Read Accesses: 10239790
L2 IP Table Write Accesses: 7751340
L2 IP Table Tag Read Accesses: 5119895
L2 IP Table Tag Write Accesses: 5119895

DRAM Statistics
 CHANNEL 0
 RQ ROW_BUFFER_HIT:       5361  ROW_BUFFER_MISS:    1673186
 DBUS_CONGESTED:         16
 WQ ROW_BUFFER_HIT:     321438  ROW_BUFFER_MISS:     787774  FULL:          0

 AVG_CONGESTED_CYCLE: 5
 All warmup complete: 2
Channel 0 Bank busy for read cycles: 0
Channel 0 Bank busy for write cycles: 0
Channel 0
Rank 0
0banks busy for read cycles: 924090
0banks busy for write cycles: 11674
1banks busy for read cycles: 41780479
1banks busy for write cycles: 1785910
2banks busy for read cycles: 30912708
2banks busy for write cycles: 3089011
3banks busy for read cycles: 20434551
3banks busy for write cycles: 4761489
4banks busy for read cycles: 12853145
4banks busy for write cycles: 6605439
5banks busy for read cycles: 5216958
5banks busy for write cycles: 8306288
6banks busy for read cycles: 1357041
6banks busy for write cycles: 9330742
7banks busy for read cycles: 98299
7banks busy for write cycles: 9025037
8banks busy for read cycles: 5105
8banks busy for write cycles: 6978942

CPU 0 Branch Prediction Accuracy: 99.9768% MPKI: 0.03616 Average ROB Occupancy at Mispredict: 181.482
Branch types
NOT_BRANCH: 42211281 84.4226%
BRANCH_DIRECT_JUMP: 1137286 2.27457%
BRANCH_INDIRECT: 0 0%
BRANCH_CONDITIONAL: 4434288 8.86858%
BRANCH_DIRECT_CALL: 1108572 2.21714%
BRANCH_INDIRECT_CALL: 0 0%
BRANCH_RETURN: 1108572 2.21714%
BRANCH_OTHER: 0 0%

@sumon_overall_L1D    133672     11964     11964   2500066   2633695   6216888   6216888
@Sumon_Early_by_class_L1D     91140       630     41902         0
@Sumon_Late_by_class_L1D     11334        51       392         0

@Sumon_Early_by_cycle_L1D     18425     48239     40604     13177      8440      4772        15         0         0         0         0         0
@Sumon_Late_by_cycle_L1D      3839      4248      1394       222      2070         4
@Sumon_Early_stream_L1D     17355     43055     28413      2084       224         9         0         0         0         0         0         0
@Sumon_Early_CS_L1D       103       253       231        39         3         1         0         0         0         0         0         0
@Sumon_Early_CPLX_L1D       967      4931     11960     11054      8213      4762        15         0         0         0         0         0
@Sumon_Late_stream_L1D      3675      4029      1380       214      2032         4
@Sumon_Late_CS_L1D         8        43         0         0         0         0
@Sumon_Late_CPLX_L1D       156       176        14         8        38         0
@sumon_overall_L2C      9599         0         0   1505146   1514692         0         0
@Sumon_Early_by_class_L2C      9500         4        95         0
@Sumon_Late_by_class_L2C         0         0         0         0

@Sumon_Early_by_cycle_L2C         0         0         0         0         0         0         0         0         0         1         5      9593
@Sumon_Late_by_cycle_L2C         0         0         0         0         0         0
@Sumon_Early_stream_L2C         0         0         0         0         0         0         0         0         0         1         5      9494
@Sumon_Early_CS_L2C         0         0         0         0         0         0         0         0         0         0         0         4
@Sumon_Early_CPLX_L2C         0         0         0         0         0         0         0         0         0         0         0        95
@Sumon_Late_stream_L2C         0         0         0         0         0         0
@Sumon_Late_CS_L2C         0         0         0         0         0         0
@Sumon_Late_CPLX_L2C         0         0         0         0         0         0
DRAM PAGES: 1048576
Allocated PAGES: 42623
