
*** ChampSim Multicore Out-of-Order Simulator ***

Warmup Instructions: 50000000
Simulation Instructions: 50000000
Number of CPUs: 1
LLC sets: 2048
LLC ways: 16
Off-chip DRAM Size: 4096 MB Channels: 1 Width: 64-bit Data Rate: 6400 MT/s
CPU 0 runs ../../biswa/SPEC2017Traces/605.mcf_s-1554B.champsimtrace.xz
.xz
CPU 0 Bimodal branch predictor
BTB has LRU replacement policy
ITLB has LRU replacement policy
DTLB has LRU replacement policy
STLB has LRU replacement policy
L1I has LRU replacement policy
IP Table Entries: 256
L1D has LRU replacement policy
IP_Table L2 entries: 256
Initialize DRRIP state for L2C
epoch: 1000
next table: 1078
cur table: 1797
epoch: 1000
next table: 1085
cur table: 1078
epoch: 1000
next table: 1071
cur table: 1085
epoch: 1000
next table: 1076
cur table: 1071
epoch: 1000
next table: 1109
cur table: 1076
epoch: 1000
next table: 1050
cur table: 1109
epoch: 1000
next table: 1091
cur table: 1050
epoch: 1000
next table: 1108
cur table: 1091
epoch: 1000
next table: 1085
cur table: 1108
epoch: 1000
next table: 1073
cur table: 1085
epoch: 1000
next table: 1049
cur table: 1073
epoch: 1000
next table: 1079
cur table: 1049
epoch: 1000
next table: 1072
cur table: 1079
epoch: 1000
next table: 1090
cur table: 1072
epoch: 1000
next table: 1059
cur table: 1090
epoch: 1000
next table: 1080
cur table: 1059
epoch: 1000
next table: 1096
cur table: 1080
epoch: 1000
next table: 1060
cur table: 1096
epoch: 1000
next table: 1089
cur table: 1060
epoch: 1000
next table: 1092
cur table: 1089
epoch: 1000
next table: 1110
cur table: 1092
epoch: 1000
next table: 1094
cur table: 1110
epoch: 1000
next table: 1578
cur table: 1094
epoch: 1000
next table: 1639
cur table: 1578
epoch: 1000
next table: 1477
cur table: 1639
epoch: 1000
next table: 1658
cur table: 4296
epoch: 1000
next table: 1320
cur table: 1477
epoch: 1000
next table: 1272
cur table: 1658
epoch: 1000
next table: 1253
cur table: 1320
epoch: 1000
next table: 1163
cur table: 1272
epoch: 1000
next table: 1169
cur table: 1253
epoch: 1000
next table: 1150
cur table: 1163
epoch: 1000
next table: 1067
cur table: 1169
epoch: 1000
next table: 1042
cur table: 1150
epoch: 1000
next table: 1065
cur table: 1067
epoch: 1000
next table: 1111
cur table: 1042
epoch: 1000
next table: 1110
cur table: 1065
epoch: 1000
next table: 1057
cur table: 1111
epoch: 1000
next table: 1069
cur table: 1110
epoch: 1000
next table: 1054
cur table: 1057
epoch: 1000
next table: 1085
cur table: 1069
epoch: 1000
next table: 1066
cur table: 1054
epoch: 1000
next table: 1064
cur table: 1085
epoch: 1000
next table: 1073
cur table: 1066
epoch: 1000
next table: 1091
cur table: 1064
epoch: 1000
next table: 1065
cur table: 1073
epoch: 1000
next table: 1073
cur table: 1091
epoch: 1000
next table: 1045
cur table: 1065
epoch: 1000
next table: 1080
cur table: 1073
epoch: 1000
next table: 1075
cur table: 1045
epoch: 1000
next table: 1072
cur table: 1080
epoch: 1000
next table: 1035
cur table: 1075
epoch: 1000
next table: 1068
cur table: 1072
epoch: 1000
next table: 1082
cur table: 1035
epoch: 1000
next table: 1074
cur table: 1068
epoch: 1000
next table: 1081
cur table: 1082
epoch: 1000
next table: 1101
cur table: 1074
epoch: 1000
next table: 1062
cur table: 1081
epoch: 1000
next table: 1068
cur table: 1101
epoch: 1000
next table: 1075
cur table: 1062
epoch: 1000
next table: 1083
cur table: 1068
epoch: 1000
next table: 1046
cur table: 1075
epoch: 1000
next table: 1084
cur table: 1083
epoch: 1000
next table: 1091
cur table: 1046
epoch: 1000
next table: 1087
cur table: 1084
epoch: 1000
next table: 1057
cur table: 1091
epoch: 1000
next table: 1075
cur table: 1087
epoch: 1000
next table: 1054
cur table: 1057
epoch: 1000
next table: 1069
cur table: 1075
epoch: 1000
next table: 1068
cur table: 1054
epoch: 1000
next table: 1082
cur table: 1069
epoch: 1000
next table: 1071
cur table: 1068
epoch: 1000
next table: 1077
cur table: 1082
epoch: 1000
next table: 1063
cur table: 1071
epoch: 1000
next table: 1070
cur table: 1077
epoch: 1000
next table: 1045
cur table: 1070
epoch: 1000
next table: 1038
cur table: 1045
epoch: 1000
next table: 1047
cur table: 1038
epoch: 1000
next table: 1065
cur table: 1047
epoch: 1000
next table: 1030
cur table: 1065
epoch: 1000
next table: 1045
cur table: 1030
epoch: 1000
next table: 1034
cur table: 1045
epoch: 1000
next table: 1036
cur table: 1034
epoch: 1000
next table: 1044
cur table: 1036
epoch: 1000
next table: 1037
cur table: 1044
epoch: 1000
next table: 1026
cur table: 1037
epoch: 1000
next table: 1047
cur table: 1026
epoch: 1000
next table: 1039
cur table: 1047
epoch: 1000
next table: 1037
cur table: 1039
epoch: 1000
next table: 1033
cur table: 1037
epoch: 1000
next table: 1063
cur table: 1033
epoch: 1000
next table: 1043
cur table: 1063
epoch: 1000
next table: 1035
cur table: 1043
epoch: 1000
next table: 1028
cur table: 1035
epoch: 1000
next table: 1044
cur table: 1028
epoch: 1000
next table: 1034
cur table: 1044
epoch: 1000
next table: 1032
cur table: 1034
epoch: 1000
next table: 1054
cur table: 1032
epoch: 1000
next table: 1042
cur table: 1054
epoch: 1000
next table: 1031
cur table: 1042
epoch: 1000
next table: 1040
cur table: 1031
epoch: 1000
next table: 1044
cur table: 1040
epoch: 1000
next table: 1035
cur table: 1044
epoch: 1000
next table: 1055
cur table: 1035
epoch: 1000
next table: 1047
cur table: 1055
epoch: 1000
next table: 1095
cur table: 1047
epoch: 1000
next table: 1657
cur table: 1095
epoch: 1000
next table: 3132
cur table: 1063
epoch: 1000
next table: 1611
cur table: 1657
epoch: 1000
next table: 1351
cur table: 1611
epoch: 1000
next table: 1209
cur table: 1351
epoch: 1000
next table: 1107
cur table: 1209
epoch: 1000
next table: 1067
cur table: 1107
epoch: 1000
next table: 1034
cur table: 1067
epoch: 1000
next table: 1031
cur table: 1034
epoch: 1000
next table: 1038
cur table: 1031
epoch: 1000
next table: 1038
cur table: 1038
epoch: 1000
next table: 1026
cur table: 1038
epoch: 1000
next table: 1040
cur table: 1026
epoch: 1000
next table: 1031
cur table: 1040
epoch: 1000
next table: 1039
cur table: 1031
epoch: 1000
next table: 1043
cur table: 1039
epoch: 1000
next table: 1030
cur table: 1043
epoch: 1000
next table: 1038
cur table: 1030
epoch: 1000
next table: 1044
cur table: 1038
epoch: 1000
next table: 1045
cur table: 1044
epoch: 1000
next table: 1036
cur table: 1045
epoch: 1000
next table: 1042
cur table: 1036
epoch: 1000
next table: 1032
cur table: 1042
epoch: 1000
next table: 1042
cur table: 1032
epoch: 1000
next table: 1036
cur table: 1042
epoch: 1000
next table: 1032
cur table: 1036
epoch: 1000
next table: 1043
cur table: 1032
epoch: 1000
next table: 1029
cur table: 1043
epoch: 1000
next table: 1048
cur table: 1029
epoch: 1000
next table: 1042
cur table: 1048
epoch: 1000
next table: 1063
cur table: 1042
epoch: 1000
next table: 1076
cur table: 1063
epoch: 1000
next table: 1043
cur table: 1076
epoch: 1000
next table: 1032
cur table: 1043
epoch: 1000
next table: 1041
cur table: 1032
epoch: 1000
next table: 1041
cur table: 1041
epoch: 1000
next table: 1039
cur table: 1041
epoch: 1000
next table: 1037
cur table: 1039
epoch: 1000
next table: 1062
cur table: 1037
epoch: 1000
next table: 1035
cur table: 1062
epoch: 1000
next table: 1038
cur table: 1035
epoch: 1000
next table: 1034
cur table: 1038
epoch: 1000
next table: 1035
cur table: 1034
epoch: 1000
next table: 1036
cur table: 1035
epoch: 1000
next table: 1053
cur table: 1036
epoch: 1000
next table: 1043
cur table: 1053
epoch: 1000
next table: 1044
cur table: 1043
epoch: 1000
next table: 1027
cur table: 1044
epoch: 1000
next table: 3857
cur table: 3132
epoch: 1000
next table: 1035
cur table: 1027
epoch: 1000
next table: 1045
cur table: 1035
epoch: 1000
next table: 1031
cur table: 1045
epoch: 1000
next table: 1102
cur table: 3857
epoch: 1000
next table: 1037
cur table: 1031
epoch: 1000
next table: 1035
cur table: 1037
epoch: 1000
next table: 1099
cur table: 1102
epoch: 1000
next table: 1045
cur table: 1035
epoch: 1000
next table: 1048
cur table: 1045
epoch: 1000
next table: 1073
cur table: 1099
epoch: 1000
next table: 1029
cur table: 1048
epoch: 1000
next table: 1045
cur table: 1029
epoch: 1000
next table: 1091
cur table: 1073
epoch: 1000
next table: 1086
cur table: 1045
epoch: 1000
next table: 1028
cur table: 1086
epoch: 1000
next table: 1082
cur table: 1091
epoch: 1000
next table: 1339
cur table: 1028
epoch: 1000
next table: 1619
cur table: 1339
epoch: 1000
next table: 2051
cur table: 1082
epoch: 1000
next table: 1367
cur table: 1619
epoch: 1000
next table: 1226
cur table: 1367
epoch: 1000
next table: 1644
cur table: 2051
epoch: 1000
next table: 1185
cur table: 1226
epoch: 1000
next table: 1165
cur table: 1185
epoch: 1000
next table: 1167
cur table: 1165
epoch: 1000
next table: 1170
cur table: 1167
epoch: 1000
next table: 1149
cur table: 1170
epoch: 1000
next table: 1157
cur table: 1149
epoch: 1000
next table: 1839
cur table: 1644
epoch: 1000
next table: 1137
cur table: 1157
epoch: 1000
next table: 1176
cur table: 1137
epoch: 1000
next table: 1179
cur table: 1176
epoch: 1000
next table: 1162
cur table: 1179
epoch: 1000
next table: 1158
cur table: 1162
epoch: 1000
next table: 1159
cur table: 1158
epoch: 1000
next table: 1906
cur table: 1839
epoch: 1000
next table: 1123
cur table: 1159
epoch: 1000
next table: 1118
cur table: 1123
epoch: 1000
next table: 1105
cur table: 1118
epoch: 1000
next table: 1103
cur table: 1105
epoch: 1000
next table: 1072
cur table: 1103
epoch: 1000
next table: 1070
cur table: 1072
epoch: 1000
next table: 1061
cur table: 1070
epoch: 1000
next table: 1068
cur table: 1061
epoch: 1000
next table: 1086
cur table: 1068
epoch: 1000
next table: 1080
cur table: 1086
epoch: 1000
next table: 1089
cur table: 1080
epoch: 1000
next table: 1101
cur table: 1089
epoch: 1000
next table: 1095
cur table: 1101
epoch: 1000
next table: 1073
cur table: 1095
epoch: 1000
next table: 2271
cur table: 1906
epoch: 1000
next table: 1105
cur table: 1073
epoch: 1000
next table: 1073
cur table: 1105
epoch: 1000
next table: 1088
cur table: 2271
epoch: 1000
next table: 1092
cur table: 1073
epoch: 1000
next table: 1094
cur table: 1088
epoch: 1000
next table: 1073
cur table: 1092
epoch: 1000
next table: 1137
cur table: 1094
epoch: 1000
next table: 1097
cur table: 1073
epoch: 1000
next table: 1083
cur table: 1137
epoch: 1000
next table: 1075
cur table: 1097
epoch: 1000
next table: 1064
cur table: 1075
epoch: 1000
next table: 1090
cur table: 1083
epoch: 1000
next table: 1061
cur table: 1064
epoch: 1000
next table: 1062
cur table: 1090
epoch: 1000
next table: 1040
cur table: 1061
epoch: 1000
next table: 1053
cur table: 1040
epoch: 1000
next table: 1075
cur table: 1062
epoch: 1000
next table: 1041
cur table: 1053
epoch: 1000
next table: 1079
cur table: 1041
epoch: 1000
next table: 1109
cur table: 1075
epoch: 1000
next table: 1046
cur table: 1079
epoch: 1000
next table: 1074
cur table: 1109
epoch: 1000
next table: 1037
cur table: 1046
epoch: 1000
next table: 1039
cur table: 1037
epoch: 1000
next table: 1078
cur table: 1074
epoch: 1000
next table: 1037
cur table: 1039
epoch: 1000
next table: 1042
cur table: 1037
epoch: 1000
next table: 1090
cur table: 1078
epoch: 1000
next table: 1051
cur table: 1042
epoch: 1000
next table: 1039
cur table: 1051
epoch: 1000
next table: 1075
cur table: 1090
epoch: 1000
next table: 1029
cur table: 1039
epoch: 1000
next table: 1056
cur table: 1029
epoch: 1000
next table: 1040
cur table: 1056
epoch: 1000
next table: 1116
cur table: 1075
epoch: 1000
next table: 1026
cur table: 1040
epoch: 1000
next table: 1031
cur table: 1026
epoch: 1000
next table: 1035
cur table: 1031
epoch: 1000
next table: 1097
cur table: 1116
epoch: 1000
next table: 1034
cur table: 1035
epoch: 1000
next table: 1047
cur table: 1034
epoch: 1000
next table: 1041
cur table: 1047
epoch: 1000
next table: 1024
cur table: 1041
epoch: 1000
next table: 1122
cur table: 1097
epoch: 1000
next table: 1063
cur table: 1024
epoch: 1000
next table: 1048
cur table: 1063
epoch: 1000
next table: 1036
cur table: 1048
epoch: 1000
next table: 1537
cur table: 1036
epoch: 1000
next table: 2224
cur table: 1122
epoch: 1000
next table: 1622
cur table: 1537
epoch: 1000
next table: 1403
cur table: 1622
epoch: 1000
next table: 1262
cur table: 1403
epoch: 1000
next table: 1158
cur table: 1262
epoch: 1000
next table: 1071
cur table: 1158
epoch: 1000
next table: 1036
cur table: 1071
epoch: 1000
next table: 2009
cur table: 2224
epoch: 1000
next table: 1040
cur table: 1036
epoch: 1000
next table: 1037
cur table: 1040
epoch: 1000
next table: 1035
cur table: 1037
epoch: 1000
next table: 1032
cur table: 1035
epoch: 1000
next table: 1039
cur table: 1032
epoch: 1000
next table: 1037
cur table: 1039
epoch: 1000
next table: 1023
cur table: 1037
epoch: 1000
next table: 1258
cur table: 2009
epoch: 1000
next table: 1036
cur table: 1023
epoch: 1000
next table: 1035
cur table: 1036
epoch: 1000
next table: 1035
cur table: 1035
epoch: 1000
next table: 1044
cur table: 1035
epoch: 1000
next table: 1042
cur table: 1044
epoch: 1000
next table: 1204
cur table: 1258
epoch: 1000
next table: 1043
cur table: 1042
epoch: 1000
next table: 1041
cur table: 1043
epoch: 1000
next table: 1039
cur table: 1041
epoch: 1000
next table: 1032
cur table: 1039
epoch: 1000
next table: 1039
cur table: 1032
epoch: 1000
next table: 1034
cur table: 1039
epoch: 1000
next table: 1217
cur table: 1204
epoch: 1000
next table: 1035
cur table: 1034
epoch: 1000
next table: 1044
cur table: 1035
epoch: 1000
next table: 1031
cur table: 1044
epoch: 1000
next table: 1118
cur table: 1217
epoch: 1000
next table: 1051
cur table: 1031
epoch: 1000
next table: 1036
cur table: 1051
epoch: 1000
next table: 1082
cur table: 1118
epoch: 1000
next table: 1044
cur table: 1036
epoch: 1000
next table: 1059
cur table: 1044
epoch: 1000
next table: 1108
cur table: 1082
epoch: 1000
next table: 1048
cur table: 1059
epoch: 1000
next table: 1037
cur table: 1048
epoch: 1000
next table: 1064
cur table: 1108
epoch: 1000
next table: 1043
cur table: 1037
epoch: 1000
next table: 1036
cur table: 1043
epoch: 1000
next table: 1074
cur table: 1064
epoch: 1000
next table: 1039
cur table: 1036
epoch: 1000
next table: 1041
cur table: 1039
epoch: 1000
next table: 1075
cur table: 1074
epoch: 1000
next table: 1027
cur table: 1041
epoch: 1000
next table: 1036
cur table: 1027
epoch: 1000
next table: 1072
cur table: 1075
epoch: 1000
next table: 1029
cur table: 1036
epoch: 1000
next table: 1033
cur table: 1029
epoch: 1000
next table: 1065
cur table: 1072
epoch: 1000
next table: 1041
cur table: 1033
epoch: 1000
next table: 1055
cur table: 1041
epoch: 1000
next table: 1086
cur table: 1065
epoch: 1000
next table: 1035
cur table: 1055
epoch: 1000
next table: 1052
cur table: 1086
epoch: 1000
next table: 1032
cur table: 1035
epoch: 1000
next table: 1028
cur table: 1032
epoch: 1000
next table: 1045
cur table: 1052
epoch: 1000
next table: 1041
cur table: 1028
epoch: 1000
next table: 1043
cur table: 1041
epoch: 1000
next table: 1084
cur table: 1045
epoch: 1000
next table: 1038
cur table: 1043
epoch: 1000
next table: 1037
cur table: 1038
epoch: 1000
next table: 1087
cur table: 1084
epoch: 1000
next table: 1049
cur table: 1037
epoch: 1000
next table: 1031
cur table: 1049
epoch: 1000
next table: 1075
cur table: 1087
epoch: 1000
next table: 1034
cur table: 1031
epoch: 1000
next table: 1033
cur table: 1034
epoch: 1000
next table: 1076
cur table: 1075
epoch: 1000
next table: 1037
cur table: 1033
epoch: 1000
next table: 1064
cur table: 1037
epoch: 1000
next table: 1028
cur table: 1064
epoch: 1000
next table: 1115
cur table: 1076
epoch: 1000
next table: 1100
cur table: 1028
epoch: 1000
next table: 1682
cur table: 1100
epoch: 1000
next table: 1611
cur table: 1682
epoch: 1000
next table: 1324
cur table: 1611
epoch: 1000
next table: 1193
cur table: 1324
epoch: 1000
next table: 2933
cur table: 1115
epoch: 1000
next table: 1077
cur table: 1193
epoch: 1000
next table: 1065
cur table: 1077
epoch: 1000
next table: 1040
cur table: 1065
epoch: 1000
next table: 1019
cur table: 1040
epoch: 1000
next table: 1193
cur table: 2933
epoch: 1000
next table: 1051
cur table: 1019
epoch: 1000
next table: 1045
cur table: 1051
epoch: 1000
next table: 1027
cur table: 1045
epoch: 1000
next table: 1045
cur table: 1027
epoch: 1000
next table: 1143
cur table: 1193
epoch: 1000
next table: 1030
cur table: 1045
epoch: 1000
next table: 1040
cur table: 1030
epoch: 1000
next table: 1032
cur table: 1040
epoch: 1000
next table: 1036
cur table: 1032
epoch: 1000
next table: 1131
cur table: 1143
epoch: 1000
next table: 1032
cur table: 1036
epoch: 1000
next table: 1046
cur table: 1032
epoch: 1000
next table: 1056
cur table: 1046
epoch: 1000
next table: 1034
cur table: 1056
epoch: 1000
next table: 1165
cur table: 1131
epoch: 1000
next table: 1044
cur table: 1034
epoch: 1000
next table: 1030
cur table: 1044
epoch: 1000
next table: 1040
cur table: 1030
epoch: 1000
next table: 1138
cur table: 1165
epoch: 1000
next table: 1036
cur table: 1040
epoch: 1000
next table: 1040
cur table: 1036
epoch: 1000
next table: 1041
cur table: 1040
epoch: 1000
next table: 1110
cur table: 1138
epoch: 1000
next table: 1031
cur table: 1041
epoch: 1000
next table: 1041
cur table: 1031
epoch: 1000
next table: 1085
cur table: 1110
epoch: 1000
next table: 1035
cur table: 1041
epoch: 1000
next table: 1042
cur table: 1035
epoch: 1000
next table: 1107
cur table: 1085
epoch: 1000
next table: 1065
cur table: 1042
epoch: 1000
next table: 1041
cur table: 1065
epoch: 1000
next table: 1060
cur table: 1107
epoch: 1000
next table: 1036
cur table: 1041
epoch: 1000
next table: 1032
cur table: 1036
epoch: 1000
next table: 1070
cur table: 1060
epoch: 1000
next table: 1059
cur table: 1032
epoch: 1000
next table: 1070
cur table: 1070
epoch: 1000
next table: 1039
cur table: 1059
epoch: 1000
next table: 1041
cur table: 1039
epoch: 1000
next table: 1063
cur table: 1070
epoch: 1000
next table: 1026
cur table: 1041
epoch: 1000
next table: 1045
cur table: 1026
epoch: 1000
next table: 1057
cur table: 1063
epoch: 1000
next table: 1049
cur table: 1045
epoch: 1000
next table: 1066
cur table: 1057
epoch: 1000
next table: 1033
cur table: 1049
epoch: 1000
next table: 1047
cur table: 1033
epoch: 1000
next table: 1062
cur table: 1066
epoch: 1000
next table: 1042
cur table: 1047
epoch: 1000
next table: 1082
cur table: 1062
epoch: 1000
next table: 1051
cur table: 1042
epoch: 1000
next table: 1041
cur table: 1051
epoch: 1000
next table: 1063
cur table: 1082
epoch: 1000
next table: 1039
cur table: 1041
epoch: 1000
next table: 1029
cur table: 1039
epoch: 1000
next table: 1068
cur table: 1063
epoch: 1000
next table: 1046
cur table: 1029
epoch: 1000
next table: 1042
cur table: 1046
epoch: 1000
next table: 1093
cur table: 1068
epoch: 1000
next table: 1037
cur table: 1042
epoch: 1000
next table: 1045
cur table: 1037
epoch: 1000
next table: 1034
cur table: 1045
epoch: 1000
next table: 1098
cur table: 1093
epoch: 1000
next table: 1039
cur table: 1034
epoch: 1000
next table: 1037
cur table: 1039
epoch: 1000
next table: 1105
cur table: 1098
epoch: 1000
next table: 1034
cur table: 1037
epoch: 1000
next table: 1041
cur table: 1034
epoch: 1000
next table: 1051
cur table: 1041
epoch: 1000
next table: 1034
cur table: 1051
epoch: 1000
next table: 1133
cur table: 1105
epoch: 1000
next table: 1281
cur table: 1034
epoch: 1000
next table: 1612
cur table: 1281
epoch: 1000
next table: 1384
cur table: 1612
epoch: 1000
next table: 1213
cur table: 1384
epoch: 1000
next table: 2610
cur table: 1133
epoch: 1000
next table: 1184
cur table: 1213
epoch: 1000
next table: 1158
cur table: 1184
epoch: 1000
next table: 1159
cur table: 1158
epoch: 1000
next table: 1141
cur table: 1159
epoch: 1000
next table: 1527
cur table: 2610
epoch: 1000
next table: 1152
cur table: 1141
epoch: 1000
next table: 1169
cur table: 1152
epoch: 1000
next table: 1140
cur table: 1169
epoch: 1000
next table: 1162
cur table: 1140
epoch: 1000
next table: 1546
cur table: 1527
epoch: 1000
next table: 1157
cur table: 1162
epoch: 1000
next table: 1163
cur table: 1157
epoch: 1000
next table: 1158
cur table: 1163
epoch: 1000
next table: 1477
cur table: 1546
epoch: 1000
next table: 1158
cur table: 1158
epoch: 1000
next table: 1144
cur table: 1158
epoch: 1000
next table: 1160
cur table: 1144
epoch: 1000
next table: 1408
cur table: 1477
epoch: 1000
next table: 1125
cur table: 1160
epoch: 1000
next table: 1108
cur table: 1125
epoch: 1000
next table: 1068
cur table: 1108
epoch: 1000
next table: 1285
cur table: 1408
epoch: 1000
next table: 1073
cur table: 1068
epoch: 1000
next table: 1052
cur table: 1073
epoch: 1000
next table: 1048
cur table: 1052
epoch: 1000
next table: 1206
cur table: 1285
epoch: 1000
next table: 1078
cur table: 1048
epoch: 1000
next table: 1095
cur table: 1078
epoch: 1000
next table: 1102
cur table: 1095
epoch: 1000
next table: 1305
cur table: 1206
epoch: 1000
next table: 1090
cur table: 1102
epoch: 1000
next table: 1099
cur table: 1090
epoch: 1000
next table: 1096
cur table: 1099
epoch: 1000
next table: 1268
cur table: 1305
epoch: 1000
next table: 1122
cur table: 1096
epoch: 1000
next table: 1072
cur table: 1122
epoch: 1000
next table: 1184
cur table: 1268
epoch: 1000
next table: 1107
cur table: 1072
epoch: 1000
next table: 1085
cur table: 1107
epoch: 1000
next table: 1181
cur table: 1184
epoch: 1000
next table: 1089
cur table: 1085
epoch: 1000
next table: 1078
cur table: 1089
epoch: 1000
next table: 1132
cur table: 1181
epoch: 1000
next table: 1051
cur table: 1078
epoch: 1000
next table: 1061
cur table: 1051
epoch: 1000
next table: 1100
cur table: 1132
epoch: 1000
next table: 1033
cur table: 1061
epoch: 1000
next table: 1064
cur table: 1100
epoch: 1000
next table: 1056
cur table: 1033
epoch: 1000
next table: 1039
cur table: 1056
epoch: 1000
next table: 1061
cur table: 1064
epoch: 1000
next table: 1030
cur table: 1039
epoch: 1000
next table: 1041
cur table: 1030
epoch: 1000
next table: 1053
cur table: 1061
epoch: 1000
next table: 1033
cur table: 1041
epoch: 1000
next table: 1058
cur table: 1053
epoch: 1000
next table: 1037
cur table: 1033
epoch: 1000
next table: 1040
cur table: 1037
epoch: 1000
next table: 1058
cur table: 1058
epoch: 1000
next table: 1043
cur table: 1040
epoch: 1000
next table: 1083
cur table: 1058
epoch: 1000
next table: 1047
cur table: 1043
epoch: 1000
next table: 1041
cur table: 1047
epoch: 1000
next table: 1066
cur table: 1083
epoch: 1000
next table: 1044
cur table: 1041
epoch: 1000
next table: 1036
cur table: 1044
epoch: 1000
next table: 1099
cur table: 1066
epoch: 1000
next table: 1052
cur table: 1036
epoch: 1000
next table: 1037
cur table: 1052
epoch: 1000
next table: 1042
cur table: 1037
epoch: 1000
next table: 1094
cur table: 1099
epoch: 1000
next table: 1041
cur table: 1042
epoch: 1000
next table: 1041
cur table: 1041
epoch: 1000
next table: 1040
cur table: 1041
epoch: 1000
next table: 1105
cur table: 1094
epoch: 1000
next table: 1042
cur table: 1040
epoch: 1000
next table: 1061
cur table: 1042
epoch: 1000
next table: 1083
cur table: 1061
epoch: 1000
next table: 1095
cur table: 1105
epoch: 1000
next table: 1681
cur table: 1083
epoch: 1000
next table: 1630
cur table: 1681
epoch: 1000
next table: 1221
cur table: 1630
epoch: 1000
next table: 2162
cur table: 1095
epoch: 1000
next table: 1173
cur table: 1221
epoch: 1000
next table: 1157
cur table: 1173
epoch: 1000
next table: 1167
cur table: 1157
epoch: 1000
next table: 1161
cur table: 1167
epoch: 1000
next table: 1608
cur table: 2162
epoch: 1000
next table: 1169
cur table: 1161
epoch: 1000
next table: 1160
cur table: 1169
epoch: 1000
next table: 1138
cur table: 1160
epoch: 1000
next table: 1169
cur table: 1138
epoch: 1000
next table: 1542
cur table: 1608
epoch: 1000
next table: 1151
cur table: 1169
epoch: 1000
next table: 1156
cur table: 1151
epoch: 1000
next table: 1140
cur table: 1156
epoch: 1000
next table: 1515
cur table: 1542
epoch: 1000
next table: 1163
cur table: 1140
epoch: 1000
next table: 1126
cur table: 1163
epoch: 1000
next table: 1122
cur table: 1126
epoch: 1000
next table: 1316
cur table: 1515
epoch: 1000
next table: 1116
cur table: 1122
epoch: 1000
next table: 1109
cur table: 1116
epoch: 1000
next table: 1080
cur table: 1109
epoch: 1000
next table: 1273
cur table: 1316
epoch: 1000
next table: 1084
cur table: 1080
epoch: 1000
next table: 1073
cur table: 1084
epoch: 1000
next table: 1067
cur table: 1073
epoch: 1000
next table: 1239
cur table: 1273
epoch: 1000
next table: 1074
cur table: 1067
epoch: 1000
next table: 1095
cur table: 1074
epoch: 1000
next table: 1079
cur table: 1095
epoch: 1000
next table: 1244
cur table: 1239
epoch: 1000
next table: 1082
cur table: 1079
epoch: 1000
next table: 1095
cur table: 1082
epoch: 1000
next table: 1071
cur table: 1095
epoch: 1000
next table: 1180
cur table: 1244
epoch: 1000
next table: 1101
cur table: 1071
epoch: 1000
next table: 1089
cur table: 1101
epoch: 1000
next table: 1189
cur table: 1180
epoch: 1000
next table: 1085
cur table: 1089
epoch: 1000
next table: 1083
cur table: 1085
epoch: 1000
next table: 1180
cur table: 1189
epoch: 1000
next table: 1090
cur table: 1083
epoch: 1000
next table: 1087
cur table: 1090
epoch: 1000
next table: 1145
cur table: 1180
epoch: 1000
next table: 1074
cur table: 1087
epoch: 1000
next table: 1106
cur table: 1145
epoch: 1000
next table: 1060
cur table: 1074
epoch: 1000
next table: 1054
cur table: 1060
epoch: 1000
next table: 1094
cur table: 1106
epoch: 1000
next table: 1046
cur table: 1054
epoch: 1000
next table: 1069
cur table: 1094
epoch: 1000
next table: 1050
cur table: 1046
epoch: 1000
next table: 1054
cur table: 1050
epoch: 1000
next table: 1074
cur table: 1069
epoch: 1000
next table: 1037
cur table: 1054
epoch: 1000
next table: 1038
cur table: 1037
epoch: 1000
next table: 1059
cur table: 1074
epoch: 1000
next table: 1041
cur table: 1038
epoch: 1000
next table: 1038
cur table: 1041
epoch: 1000
next table: 1072
cur table: 1059
epoch: 1000
next table: 1040
cur table: 1038
epoch: 1000
next table: 1097
cur table: 1072
epoch: 1000
next table: 1061
cur table: 1040
epoch: 1000
next table: 1037
cur table: 1061
epoch: 1000
next table: 1067
cur table: 1097
epoch: 1000
next table: 1034
cur table: 1037
epoch: 1000
next table: 1028
cur table: 1034
epoch: 1000
next table: 1033
cur table: 1028
epoch: 1000
next table: 1074
cur table: 1067
epoch: 1000
next table: 1037
cur table: 1033
epoch: 1000
next table: 1050
cur table: 1037
epoch: 1000
next table: 1112
cur table: 1074
epoch: 1000
next table: 1042
cur table: 1050
epoch: 1000
next table: 1042
cur table: 1042
epoch: 1000
next table: 1046
cur table: 1042
epoch: 1000
next table: 1090
cur table: 1112
epoch: 1000
next table: 1042
cur table: 1046
epoch: 1000
next table: 1109
cur table: 1042
epoch: 1000
next table: 1112
cur table: 1109
epoch: 1000
next table: 1365
cur table: 1090
epoch: 1000
next table: 2056
cur table: 1112
epoch: 1000
next table: 1440
cur table: 2056
epoch: 1000
next table: 1211
cur table: 1440
epoch: 1000
next table: 1122
cur table: 1211
epoch: 1000
next table: 2119
cur table: 1365
epoch: 1000
next table: 1097
cur table: 1122
epoch: 1000
next table: 1049
cur table: 1097
epoch: 1000
next table: 1034
cur table: 1049
epoch: 1000
next table: 1152
cur table: 2119
epoch: 1000
next table: 1039
cur table: 1034
epoch: 1000
next table: 1049
cur table: 1039
epoch: 1000
next table: 1117
cur table: 1152
epoch: 1000
next table: 1046
cur table: 1049
epoch: 1000
next table: 1041
cur table: 1046
epoch: 1000
next table: 1076
cur table: 1117
epoch: 1000
next table: 1039
cur table: 1041
epoch: 1000
next table: 1046
cur table: 1039
epoch: 1000
next table: 1078
cur table: 1076
epoch: 1000
next table: 1042
cur table: 1046
epoch: 1000
next table: 1042
cur table: 1042
epoch: 1000
next table: 1100
cur table: 1078
epoch: 1000
next table: 1047
cur table: 1042
epoch: 1000
next table: 1045
cur table: 1047
epoch: 1000
next table: 1057
cur table: 1045
epoch: 1000
next table: 1141
cur table: 1100
epoch: 1000
next table: 1047
cur table: 1057
epoch: 1000
next table: 1044
cur table: 1047
epoch: 1000
next table: 1037
cur table: 1044
epoch: 1000
next table: 1110
cur table: 1141
epoch: 1000
next table: 1043
cur table: 1037
epoch: 1000
next table: 1046
cur table: 1043
epoch: 1000
next table: 1042
cur table: 1046
epoch: 1000
next table: 1104
cur table: 1110
epoch: 1000
next table: 1036
cur table: 1042
epoch: 1000
next table: 1042
cur table: 1036
epoch: 1000
next table: 1075
cur table: 1104
epoch: 1000
next table: 1038
cur table: 1042
epoch: 1000
next table: 1047
cur table: 1038
epoch: 1000
next table: 1086
cur table: 1075
epoch: 1000
next table: 1040
cur table: 1047
epoch: 1000
next table: 1068
cur table: 1040
epoch: 1000
next table: 1116
cur table: 1086
epoch: 1000
next table: 1048
cur table: 1068
epoch: 1000
next table: 1039
cur table: 1048
epoch: 1000
next table: 1070
cur table: 1116
epoch: 1000
next table: 1044
cur table: 1039
epoch: 1000
next table: 1032
cur table: 1044
epoch: 1000
next table: 1076
cur table: 1070
epoch: 1000
next table: 1041
cur table: 1032
epoch: 1000
next table: 1044
cur table: 1041
epoch: 1000
next table: 1080
cur table: 1076
epoch: 1000
next table: 1035
cur table: 1044
epoch: 1000
next table: 1036
cur table: 1035
epoch: 1000
next table: 1071
cur table: 1080
epoch: 1000
next table: 1036
cur table: 1036
epoch: 1000
next table: 1037
cur table: 1036
epoch: 1000
next table: 1073
cur table: 1071
epoch: 1000
next table: 1037
cur table: 1037
epoch: 1000
next table: 1053
cur table: 1037
epoch: 1000
next table: 1101
cur table: 1073
epoch: 1000
next table: 1037
cur table: 1053
epoch: 1000
next table: 1049
cur table: 1037
epoch: 1000
next table: 1040
cur table: 1049
epoch: 1000
next table: 1104
cur table: 1101
epoch: 1000
next table: 1044
cur table: 1040
epoch: 1000
next table: 1048
cur table: 1044
epoch: 1000
next table: 1124
cur table: 1104
epoch: 1000
next table: 1046
cur table: 1048
epoch: 1000
next table: 1053
cur table: 1046
epoch: 1000
next table: 1049
cur table: 1053
epoch: 1000
next table: 1044
cur table: 1049
epoch: 1000
next table: 1150
cur table: 1124
epoch: 1000
next table: 1062
cur table: 1044
epoch: 1000
next table: 1057
cur table: 1062
epoch: 1000
next table: 1090
cur table: 1057
epoch: 1000
next table: 1731
cur table: 1090
epoch: 1000
next table: 1584
cur table: 1150
epoch: 1000
next table: 1743
cur table: 1731
epoch: 1000
next table: 1257
cur table: 1743
epoch: 1000
next table: 1166
cur table: 1257
epoch: 1000
next table: 1070
cur table: 1166
epoch: 1000
next table: 2017
cur table: 1584
epoch: 1000
next table: 1073
cur table: 1070
epoch: 1000
next table: 1032
cur table: 1073
epoch: 1000
next table: 1049
cur table: 1032
epoch: 1000
next table: 1118
cur table: 2017
epoch: 1000
next table: 1043
cur table: 1049
epoch: 1000
next table: 1040
cur table: 1043
epoch: 1000
next table: 1042
cur table: 1040
epoch: 1000
next table: 1111
cur table: 1118
epoch: 1000
next table: 1043
cur table: 1042
epoch: 1000
next table: 1035
cur table: 1043
epoch: 1000
next table: 1035
cur table: 1035
epoch: 1000
next table: 1074
cur table: 1111
epoch: 1000
next table: 1027
cur table: 1035
epoch: 1000
next table: 1040
cur table: 1027
epoch: 1000
next table: 1108
cur table: 1074
epoch: 1000
next table: 1046
cur table: 1040
epoch: 1000
next table: 1045
cur table: 1046
epoch: 1000
next table: 1032
cur table: 1045
epoch: 1000
next table: 1041
cur table: 1032
epoch: 1000
next table: 1119
cur table: 1108
epoch: 1000
next table: 1039
cur table: 1041
epoch: 1000
next table: 1038
cur table: 1039
epoch: 1000
next table: 1047
cur table: 1038
epoch: 1000
next table: 1126
cur table: 1119
epoch: 1000
next table: 1043
cur table: 1047
epoch: 1000
next table: 1038
cur table: 1043
epoch: 1000
next table: 1041
cur table: 1038
epoch: 1000
next table: 1100
cur table: 1126
epoch: 1000
next table: 1045
cur table: 1041
epoch: 1000
next table: 1039
cur table: 1045
epoch: 1000
next table: 1088
cur table: 1100
epoch: 1000
next table: 1033
cur table: 1039
epoch: 1000
next table: 1059
cur table: 1033
epoch: 1000
next table: 1107
cur table: 1088
epoch: 1000
next table: 1031
cur table: 1059
epoch: 1000
next table: 1051
cur table: 1031
epoch: 1000
next table: 1035
cur table: 1051
epoch: 1000
next table: 1099
cur table: 1107
epoch: 1000
next table: 1038
cur table: 1035
epoch: 1000
next table: 1048
cur table: 1038
epoch: 1000
next table: 1103
cur table: 1099
epoch: 1000
next table: 1055
cur table: 1048
epoch: 1000
next table: 1044
cur table: 1055
epoch: 1000
next table: 1043
cur table: 1044
epoch: 1000
next table: 1125
cur table: 1103
epoch: 1000
next table: 1040
cur table: 1043
epoch: 1000
next table: 1037
cur table: 1040
epoch: 1000
next table: 1044
cur table: 1037
epoch: 1000
next table: 1143
cur table: 1125
epoch: 1000
next table: 1052
cur table: 1044
epoch: 1000
next table: 1038
cur table: 1052
epoch: 1000
next table: 1032
cur table: 1038
epoch: 1000
next table: 1039
cur table: 1032
epoch: 1000
next table: 1139
cur table: 1143
epoch: 1000
next table: 1044
cur table: 1039
epoch: 1000
next table: 1031
cur table: 1044
epoch: 1000
next table: 1038
cur table: 1031
epoch: 1000
next table: 1040
cur table: 1038
epoch: 1000
next table: 1036
cur table: 1040
epoch: 1000
next table: 1050
cur table: 1036
epoch: 1000
next table: 1196
cur table: 1139
epoch: 1000
next table: 1048
cur table: 1050
epoch: 1000
next table: 1096
cur table: 1048
epoch: 1000
next table: 1088
cur table: 1096
epoch: 1000
next table: 1995
cur table: 1088
epoch: 1000
next table: 1572
cur table: 1995
epoch: 1000
next table: 1246
cur table: 1572
epoch: 1000
next table: 1171
cur table: 1246
epoch: 1000
next table: 2611
cur table: 1196
epoch: 1000
next table: 1080
cur table: 1171
epoch: 1000
next table: 1062
cur table: 1080
epoch: 1000
next table: 1030
cur table: 1062
epoch: 1000
next table: 1036
cur table: 1030
epoch: 1000
next table: 1049
cur table: 1036
epoch: 1000
next table: 1191
cur table: 2611
epoch: 1000
next table: 1029
cur table: 1049
epoch: 1000
next table: 1035
cur table: 1029
epoch: 1000
next table: 1043
cur table: 1035
epoch: 1000
next table: 1043
cur table: 1043
epoch: 1000
next table: 1041
cur table: 1043
epoch: 1000
next table: 1165
cur table: 1191
epoch: 1000
next table: 1027
cur table: 1041
epoch: 1000
next table: 1052
cur table: 1027
epoch: 1000
next table: 1046
cur table: 1052
epoch: 1000
next table: 1043
cur table: 1046
epoch: 1000
next table: 1038
cur table: 1043
epoch: 1000
next table: 1225
cur table: 1165
epoch: 1000
next table: 1052
cur table: 1038
epoch: 1000
next table: 1045
cur table: 1052
epoch: 1000
next table: 1043
cur table: 1045
epoch: 1000
next table: 1040
cur table: 1043
epoch: 1000
next table: 1035
cur table: 1040
epoch: 1000
next table: 1179
cur table: 1225
epoch: 1000
next table: 1040
cur table: 1035
epoch: 1000
next table: 1040
cur table: 1040
epoch: 1000
next table: 1044
cur table: 1040
epoch: 1000
next table: 1036
cur table: 1044
epoch: 1000
next table: 1144
cur table: 1179
epoch: 1000
next table: 1070
cur table: 1036
epoch: 1000
next table: 1038
cur table: 1070
epoch: 1000
next table: 1027
cur table: 1038
epoch: 1000
next table: 1041
cur table: 1027
epoch: 1000
next table: 1169
cur table: 1144
epoch: 1000
next table: 1031
cur table: 1041
epoch: 1000
next table: 1042
cur table: 1031
epoch: 1000
next table: 1041
cur table: 1042
epoch: 1000
next table: 1032
cur table: 1041
epoch: 1000
next table: 1141
cur table: 1169
epoch: 1000
next table: 1038
cur table: 1032
epoch: 1000
next table: 1045
cur table: 1038
epoch: 1000
next table: 1037
cur table: 1045
epoch: 1000
next table: 1039
cur table: 1037
epoch: 1000
next table: 1060
cur table: 1039
epoch: 1000
next table: 1229
cur table: 1141
epoch: 1000
next table: 1047
cur table: 1060
epoch: 1000
next table: 1042
cur table: 1047
epoch: 1000
next table: 1032
cur table: 1042
epoch: 1000
next table: 1049
cur table: 1032
epoch: 1000
next table: 1034
cur table: 1049
epoch: 1000
next table: 1045
cur table: 1034
epoch: 1000
next table: 1044
cur table: 1045
epoch: 1000
next table: 1047
cur table: 1044
epoch: 1000
next table: 1305
cur table: 1229
epoch: 1000
next table: 1053
cur table: 1047
epoch: 1000
next table: 1055
cur table: 1053
epoch: 1000
next table: 1080
cur table: 1055
epoch: 1000
next table: 1076
cur table: 1080
epoch: 1000
next table: 1851
cur table: 1076
epoch: 1000
next table: 1484
cur table: 1851
epoch: 1000
next table: 1178
cur table: 1484
epoch: 1000
next table: 1164
cur table: 1178
epoch: 1000
next table: 1193
cur table: 1164
epoch: 1000
next table: 1187
cur table: 1193
epoch: 1000
next table: 1178
cur table: 1187
epoch: 1000
next table: 2831
cur table: 1305
epoch: 1000
next table: 1155
cur table: 1178
epoch: 1000
next table: 1127
cur table: 1155
epoch: 1000
next table: 1159
cur table: 1127
epoch: 1000
next table: 1180
cur table: 1159
epoch: 1000
next table: 1165
cur table: 1180
epoch: 1000
next table: 1178
cur table: 1165
epoch: 1000
next table: 1892
cur table: 2831
epoch: 1000
next table: 1155
cur table: 1178
epoch: 1000
next table: 1141
cur table: 1155
epoch: 1000
next table: 1140
cur table: 1141
epoch: 1000
next table: 1110
cur table: 1140
epoch: 1000
next table: 1565
cur table: 1892
epoch: 1000
next table: 1114
cur table: 1110
epoch: 1000
next table: 1085
cur table: 1114
epoch: 1000
next table: 1078
cur table: 1085
epoch: 1000
next table: 1071
cur table: 1078
epoch: 1000
next table: 1062
cur table: 1071
epoch: 1000
next table: 1303
cur table: 1565
epoch: 1000
next table: 1085
cur table: 1062
epoch: 1000
next table: 1117
cur table: 1085
epoch: 1000
next table: 1093
cur table: 1117
epoch: 1000
next table: 1293
cur table: 1303
epoch: 1000
next table: 1097
cur table: 1093
epoch: 1000
next table: 1100
cur table: 1097
epoch: 1000
next table: 1236
cur table: 1293
epoch: 1000
next table: 1116
cur table: 1100
epoch: 1000
next table: 1125
cur table: 1116
epoch: 1000
next table: 1083
cur table: 1125
epoch: 1000
next table: 1218
cur table: 1236
epoch: 1000
next table: 1095
cur table: 1083
epoch: 1000
next table: 1094
cur table: 1095
epoch: 1000
next table: 1204
cur table: 1218
epoch: 1000
next table: 1091
cur table: 1094
epoch: 1000
next table: 1058
cur table: 1091
epoch: 1000
next table: 1136
cur table: 1204
epoch: 1000
next table: 1066
cur table: 1058
epoch: 1000
next table: 1054
cur table: 1066
epoch: 1000
next table: 1105
cur table: 1136
epoch: 1000
next table: 1038
cur table: 1054
epoch: 1000
next table: 1052
cur table: 1038
epoch: 1000
next table: 1108
cur table: 1105
epoch: 1000
next table: 1042
cur table: 1052
epoch: 1000
next table: 1042
cur table: 1042
epoch: 1000
next table: 1078
cur table: 1108
epoch: 1000
next table: 1042
cur table: 1042
epoch: 1000
next table: 1043
cur table: 1042
epoch: 1000
next table: 1041
cur table: 1043
epoch: 1000
next table: 1092
cur table: 1078
epoch: 1000
next table: 1039
cur table: 1041
epoch: 1000
next table: 1046
cur table: 1039
epoch: 1000
next table: 1110
cur table: 1092
epoch: 1000
next table: 1046
cur table: 1046
epoch: 1000
next table: 1029
cur table: 1046
epoch: 1000
next table: 1054
cur table: 1029
epoch: 1000
next table: 1116
cur table: 1110
epoch: 1000
next table: 1038
cur table: 1054
epoch: 1000
next table: 1034
cur table: 1038
epoch: 1000
next table: 1034
cur table: 1034
epoch: 1000
next table: 1114
cur table: 1116
epoch: 1000
next table: 1055
cur table: 1034
epoch: 1000
next table: 1032
cur table: 1055
epoch: 1000
next table: 1052
cur table: 1032
epoch: 1000
next table: 1112
cur table: 1114
epoch: 1000
next table: 1039
cur table: 1052
epoch: 1000
next table: 1083
cur table: 1039
epoch: 1000
next table: 1057
cur table: 1083
epoch: 1000
next table: 1317
cur table: 1112
epoch: 1000
next table: 1785
cur table: 1057
epoch: 1000
next table: 1524
cur table: 1785
epoch: 1000
next table: 1226
cur table: 1524
epoch: 1000
next table: 1189
cur table: 1226
epoch: 1000
next table: 2025
cur table: 1317
epoch: 1000
next table: 1171
cur table: 1189
epoch: 1000
next table: 1195
cur table: 1171
epoch: 1000
next table: 1164
cur table: 1195
epoch: 1000
next table: 1158
cur table: 1164
epoch: 1000
next table: 1707
cur table: 2025
epoch: 1000
next table: 1147
cur table: 1158
epoch: 1000
next table: 1162
cur table: 1147
epoch: 1000
next table: 1160
cur table: 1162
epoch: 1000
next table: 1168
cur table: 1160
epoch: 1000
next table: 1167
cur table: 1168
epoch: 1000
next table: 1680
cur table: 1707
epoch: 1000
next table: 1160
cur table: 1167
epoch: 1000
next table: 1142
cur table: 1160
epoch: 1000
next table: 1156
cur table: 1142
epoch: 1000
next table: 1123
cur table: 1156
epoch: 1000
next table: 1605
cur table: 1680
epoch: 1000
next table: 1121
cur table: 1123
epoch: 1000
next table: 1072
cur table: 1121
epoch: 1000
next table: 1066
cur table: 1072
epoch: 1000
next table: 1061
cur table: 1066
epoch: 1000
next table: 1045
cur table: 1061
epoch: 1000
next table: 1246
cur table: 1605
epoch: 1000
next table: 1086
cur table: 1045
epoch: 1000
next table: 1086
cur table: 1086
epoch: 1000
next table: 1122
cur table: 1086
epoch: 1000
next table: 1083
cur table: 1122
epoch: 1000
next table: 1355
cur table: 1246
epoch: 1000
next table: 1098
cur table: 1083
epoch: 1000
next table: 1097
cur table: 1098
epoch: 1000
next table: 1083
cur table: 1097
epoch: 1000
next table: 1097
cur table: 1083
epoch: 1000
next table: 1355
cur table: 1355
epoch: 1000
next table: 1096
cur table: 1097
epoch: 1000
next table: 1088
cur table: 1096
epoch: 1000
next table: 1098
cur table: 1088
epoch: 1000
next table: 1075
cur table: 1098
epoch: 1000
next table: 1352
cur table: 1355
epoch: 1000
next table: 1059
cur table: 1075
epoch: 1000
next table: 1050
cur table: 1059
epoch: 1000
next table: 1039
cur table: 1050
epoch: 1000
next table: 1055
cur table: 1039
epoch: 1000
next table: 1038
cur table: 1055
epoch: 1000
next table: 1232
cur table: 1352
epoch: 1000
next table: 1029
cur table: 1038
epoch: 1000
next table: 1055
cur table: 1029
epoch: 1000
next table: 1044
cur table: 1055
epoch: 1000
next table: 1044
cur table: 1044
epoch: 1000
next table: 1043
cur table: 1044
epoch: 1000
next table: 1054
cur table: 1043
epoch: 1000
next table: 1034
cur table: 1054
epoch: 1000
next table: 1045
cur table: 1034
epoch: 1000
next table: 1328
cur table: 1232
epoch: 1000
next table: 1035
cur table: 1045
epoch: 1000
next table: 1042
cur table: 1035
epoch: 1000
next table: 1036
cur table: 1042
epoch: 1000
next table: 1043
cur table: 1036
epoch: 1000
next table: 1038
cur table: 1043
epoch: 1000
next table: 1040
cur table: 1038
epoch: 1000
next table: 1045
cur table: 1040
epoch: 1000
next table: 1043
cur table: 1045
epoch: 1000
next table: 1052
cur table: 1043
epoch: 1000
next table: 1081
cur table: 1052
epoch: 1000
next table: 1293
cur table: 1081
epoch: 1000
next table: 1975
cur table: 1293
epoch: 1000
next table: 1471
cur table: 1975
epoch: 1000
next table: 1222
cur table: 1471
epoch: 1000
next table: 2896
cur table: 1328
epoch: 1000
next table: 1106
cur table: 1222
epoch: 1000
next table: 1069
cur table: 1106
epoch: 1000
next table: 1041
cur table: 1069
epoch: 1000
next table: 1030
cur table: 1041
epoch: 1000
next table: 1036
cur table: 1030
epoch: 1000
next table: 1048
cur table: 1036
epoch: 1000
next table: 1042
cur table: 1048
epoch: 1000
next table: 1043
cur table: 1042
epoch: 1000
next table: 1031
cur table: 1043
epoch: 1000
next table: 1042
cur table: 1031
epoch: 1000
next table: 1041
cur table: 1042
epoch: 1000
next table: 1043
cur table: 1041
epoch: 1000
next table: 1045
cur table: 1043
epoch: 1000
next table: 1054
cur table: 1045
epoch: 1000
next table: 1042
cur table: 1054
epoch: 1000
next table: 1046
cur table: 1042
epoch: 1000
next table: 1673
cur table: 2896
epoch: 1000
next table: 1029
cur table: 1046
epoch: 1000
next table: 1039
cur table: 1029
epoch: 1000
next table: 1047
cur table: 1039
epoch: 1000
next table: 1040
cur table: 1047
epoch: 1000
next table: 1047
cur table: 1040
epoch: 1000
next table: 1036
cur table: 1047
epoch: 1000
next table: 1046
cur table: 1036
epoch: 1000
next table: 1041
cur table: 1046
epoch: 1000
next table: 1035
cur table: 1041
epoch: 1000
next table: 1058
cur table: 1035
epoch: 1000
next table: 1036
cur table: 1058
epoch: 1000
next table: 1431
cur table: 1673
epoch: 1000
next table: 1038
cur table: 1036
epoch: 1000
next table: 1036
cur table: 1038
epoch: 1000
next table: 1032
cur table: 1036
epoch: 1000
next table: 1052
cur table: 1032
epoch: 1000
next table: 1042
cur table: 1052
epoch: 1000
next table: 1039
cur table: 1042
epoch: 1000
next table: 1035
cur table: 1039
epoch: 1000
next table: 1053
cur table: 1035
epoch: 1000
next table: 1292
cur table: 1431
epoch: 1000
next table: 1044
cur table: 1053
epoch: 1000
next table: 1040
cur table: 1044
epoch: 1000
next table: 1051
cur table: 1040
epoch: 1000
next table: 1052
cur table: 1051
epoch: 1000
next table: 1037
cur table: 1052
epoch: 1000
next table: 1047
cur table: 1037
epoch: 1000
next table: 1050
cur table: 1047
epoch: 1000
next table: 1033
cur table: 1050
epoch: 1000
next table: 1041
cur table: 1033
epoch: 1000
next table: 1038
cur table: 1041
epoch: 1000
next table: 1399
cur table: 1292
epoch: 1000
next table: 1028
cur table: 1038
epoch: 1000
next table: 1039
cur table: 1028
epoch: 1000
next table: 1053
cur table: 1039
epoch: 1000
next table: 1066
cur table: 1053
epoch: 1000
next table: 1098
cur table: 1066
epoch: 1000
next table: 1620
cur table: 1098
epoch: 1000
next table: 1608
cur table: 1620
epoch: 1000
next table: 1253
cur table: 1608
epoch: 1000
next table: 1243
cur table: 1253
epoch: 1000
next table: 2586
cur table: 1399
epoch: 1000
next table: 1191
cur table: 1243
epoch: 1000
next table: 1215
cur table: 1191
epoch: 1000
next table: 1214
cur table: 1215
epoch: 1000
next table: 1209
cur table: 1214
epoch: 1000
next table: 1186
cur table: 1209
epoch: 1000
next table: 1186
cur table: 1186
epoch: 1000
next table: 1230
cur table: 1186
epoch: 1000
next table: 2238
cur table: 2586
epoch: 1000
next table: 1206
cur table: 1230
epoch: 1000
next table: 1206
cur table: 1206
epoch: 1000
next table: 1220
cur table: 1206
epoch: 1000
next table: 1187
cur table: 1220
epoch: 1000
next table: 1192
cur table: 1187
epoch: 1000
next table: 1962
cur table: 2238
epoch: 1000
next table: 1159
cur table: 1192
epoch: 1000
next table: 1162
cur table: 1159
epoch: 1000
next table: 1162
cur table: 1162
epoch: 1000
next table: 1109
cur table: 1162
epoch: 1000
next table: 1608
cur table: 1962
epoch: 1000
next table: 1097
cur table: 1109
epoch: 1000
next table: 1078
cur table: 1097
epoch: 1000
next table: 1084
cur table: 1078
epoch: 1000
next table: 1124
cur table: 1084
epoch: 1000
next table: 1323
cur table: 1608
epoch: 1000
next table: 1167
cur table: 1124
epoch: 1000
next table: 1112
cur table: 1167
epoch: 1000
next table: 1134
cur table: 1112
epoch: 1000
next table: 1129
cur table: 1134
epoch: 1000
next table: 1469
cur table: 1323
epoch: 1000
next table: 1141
cur table: 1129
epoch: 1000
next table: 1141
cur table: 1141
epoch: 1000
next table: 1141
cur table: 1141
epoch: 1000
next table: 1494
cur table: 1469
epoch: 1000
next table: 1119
cur table: 1141
epoch: 1000
next table: 1127
cur table: 1119
epoch: 1000
next table: 1105
cur table: 1127
epoch: 1000
next table: 1049
cur table: 1105
epoch: 1000
next table: 1073
cur table: 1049
epoch: 1000
next table: 1399
cur table: 1494
epoch: 1000
next table: 1075
cur table: 1073
epoch: 1000
next table: 1076
cur table: 1075
epoch: 1000
next table: 1040
cur table: 1076
epoch: 1000
next table: 1033
cur table: 1040
epoch: 1000
next table: 1034
cur table: 1033
epoch: 1000
next table: 1035
cur table: 1034
epoch: 1000
next table: 1220
cur table: 1399
epoch: 1000
next table: 1037
cur table: 1035
epoch: 1000
next table: 1048
cur table: 1037
epoch: 1000
next table: 1039
cur table: 1048
epoch: 1000
next table: 1056
cur table: 1039
epoch: 1000
next table: 1047
cur table: 1056
epoch: 1000
next table: 1036
cur table: 1047
epoch: 1000
next table: 1040
cur table: 1036
epoch: 1000
next table: 1308
cur table: 1220
epoch: 1000
next table: 1056
cur table: 1040
epoch: 1000
next table: 1035
cur table: 1056
epoch: 1000
next table: 1040
cur table: 1035
epoch: 1000
next table: 1033
cur table: 1040
epoch: 1000
next table: 1047
cur table: 1033
epoch: 1000
next table: 1044
cur table: 1047
epoch: 1000
next table: 1049
cur table: 1044
epoch: 1000
next table: 1089
cur table: 1049
epoch: 1000
next table: 1322
cur table: 1308
epoch: 1000
next table: 1067
cur table: 1089
epoch: 1000
next table: 1709
cur table: 1067
epoch: 1000
next table: 1524
cur table: 1709
epoch: 1000
next table: 1230
cur table: 1524
epoch: 1000
next table: 1210
cur table: 1230
epoch: 1000
next table: 1202
cur table: 1210
epoch: 1000
next table: 1221
cur table: 1202
epoch: 1000
next table: 1196
cur table: 1221
epoch: 1000
next table: 1209
cur table: 1196
epoch: 1000
next table: 3244
cur table: 1322
epoch: 1000
next table: 1205
cur table: 1209
epoch: 1000
next table: 1219
cur table: 1205
epoch: 1000
next table: 1232
cur table: 1219
epoch: 1000
next table: 1245
cur table: 1232
epoch: 1000
next table: 1219
cur table: 1245
epoch: 1000
next table: 1242
cur table: 1219
epoch: 1000
next table: 2312
cur table: 3244
epoch: 1000
next table: 1239
cur table: 1242
epoch: 1000
next table: 1223
cur table: 1239
epoch: 1000
next table: 1173
cur table: 1223
epoch: 1000
next table: 1159
cur table: 1173
epoch: 1000
next table: 1156
cur table: 1159
epoch: 1000
next table: 1821
cur table: 2312
epoch: 1000
next table: 1117
cur table: 1156
epoch: 1000
next table: 1095
cur table: 1117
epoch: 1000
next table: 1058
cur table: 1095
epoch: 1000
next table: 1085
cur table: 1058
epoch: 1000
next table: 1129
cur table: 1085
epoch: 1000
next table: 1482
cur table: 1821
epoch: 1000
next table: 1149
cur table: 1129
epoch: 1000
next table: 1112
cur table: 1149
epoch: 1000
next table: 1158
cur table: 1112
epoch: 1000
next table: 1157
cur table: 1158
epoch: 1000
next table: 1156
cur table: 1157
epoch: 1000
next table: 1149
cur table: 1156
epoch: 1000
next table: 1752
cur table: 1482
epoch: 1000
next table: 1128
cur table: 1149
epoch: 1000
next table: 1119
cur table: 1128
epoch: 1000
next table: 1136
cur table: 1119
epoch: 1000
next table: 1118
cur table: 1136
epoch: 1000
next table: 1082
cur table: 1118
epoch: 1000
next table: 1091
cur table: 1082
epoch: 1000
next table: 1619
cur table: 1752
epoch: 1000
next table: 1053
cur table: 1091
epoch: 1000
next table: 1057
cur table: 1053
epoch: 1000
next table: 1034
cur table: 1057
epoch: 1000
next table: 1036
cur table: 1034
epoch: 1000
next table: 1033
cur table: 1036
epoch: 1000
next table: 1039
cur table: 1033
epoch: 1000
next table: 1033
cur table: 1039
epoch: 1000
next table: 1038
cur table: 1033
epoch: 1000
next table: 1275
cur table: 1619
epoch: 1000
next table: 1049
cur table: 1038
epoch: 1000
next table: 1059
cur table: 1049
epoch: 1000
next table: 1050
cur table: 1059
epoch: 1000
next table: 1032
cur table: 1050
epoch: 1000
next table: 1046
cur table: 1032
epoch: 1000
next table: 1044
cur table: 1046
epoch: 1000
next table: 1033
cur table: 1044
epoch: 1000
next table: 1047
cur table: 1033
epoch: 1000
next table: 1063
cur table: 1047
epoch: 1000
next table: 1044
cur table: 1063
epoch: 1000
next table: 1464
cur table: 1275
epoch: 1000
next table: 1036
cur table: 1044
epoch: 1000
next table: 1051
cur table: 1036
epoch: 1000
next table: 1080
cur table: 1051
epoch: 1000
next table: 1055
cur table: 1080
epoch: 1000
next table: 1715
cur table: 1055
epoch: 1000
next table: 1529
cur table: 1715
epoch: 1000
next table: 1186
cur table: 1529
epoch: 1000
next table: 1199
cur table: 1186
epoch: 1000
next table: 1181
cur table: 1199
epoch: 1000
next table: 2578
cur table: 1464
epoch: 1000
next table: 1175
cur table: 1181
epoch: 1000
next table: 1157
cur table: 1175
epoch: 1000
next table: 1176
cur table: 1157
epoch: 1000
next table: 1155
cur table: 1176
epoch: 1000
next table: 1148
cur table: 1155
epoch: 1000
next table: 1886
cur table: 2578
epoch: 1000
next table: 1172
cur table: 1148
epoch: 1000
next table: 1166
cur table: 1172
epoch: 1000
next table: 1178
cur table: 1166
epoch: 1000
next table: 1148
cur table: 1178
epoch: 1000
next table: 1159
cur table: 1148
epoch: 1000
next table: 1137
cur table: 1159
epoch: 1000
next table: 1855
cur table: 1886
epoch: 1000
next table: 1112
cur table: 1137
epoch: 1000
next table: 1120
cur table: 1112
epoch: 1000
next table: 1081
cur table: 1120
epoch: 1000
next table: 1078
cur table: 1081
epoch: 1000
next table: 1055
cur table: 1078
epoch: 1000
next table: 1045
cur table: 1055
epoch: 1000
next table: 1074
cur table: 1045
epoch: 1000
next table: 1452
cur table: 1855
epoch: 1000
next table: 1074
cur table: 1074
epoch: 1000
next table: 1085
cur table: 1074
epoch: 1000
next table: 1107
cur table: 1085
epoch: 1000
next table: 1080
cur table: 1107
epoch: 1000
next table: 1117
cur table: 1080
epoch: 1000
next table: 1088
cur table: 1117
epoch: 1000
next table: 1109
cur table: 1088
epoch: 1000
next table: 1610
cur table: 1452
epoch: 1000
next table: 1105
cur table: 1109
epoch: 1000
next table: 1096
cur table: 1105
epoch: 1000
next table: 1102
cur table: 1096
epoch: 1000
next table: 1066
cur table: 1102
epoch: 1000
next table: 1080
cur table: 1066
epoch: 1000
next table: 1053
cur table: 1080
epoch: 1000
next table: 1501
cur table: 1610
epoch: 1000
next table: 1047
cur table: 1053
epoch: 1000
next table: 1045
cur table: 1047
epoch: 1000
next table: 1056
cur table: 1045
epoch: 1000
next table: 1034
cur table: 1056
epoch: 1000
next table: 1048
cur table: 1034
epoch: 1000
next table: 1033
cur table: 1048
epoch: 1000
next table: 1034
cur table: 1033
epoch: 1000
next table: 1035
cur table: 1034
epoch: 1000
next table: 1341
cur table: 1501
epoch: 1000
next table: 1058
cur table: 1035
epoch: 1000
next table: 1040
cur table: 1058
epoch: 1000
next table: 1047
cur table: 1040
epoch: 1000
next table: 1035
cur table: 1047
epoch: 1000
next table: 1045
cur table: 1035
epoch: 1000
next table: 1033
cur table: 1045
epoch: 1000
next table: 1038
cur table: 1033
epoch: 1000
next table: 1041
cur table: 1038
epoch: 1000
next table: 1040
cur table: 1041
epoch: 1000
next table: 1041
cur table: 1040
epoch: 1000
next table: 1374
cur table: 1341
epoch: 1000
next table: 1063
cur table: 1041
epoch: 1000
next table: 1057
cur table: 1063
epoch: 1000
next table: 1076
cur table: 1057
epoch: 1000
next table: 1177
cur table: 1076
epoch: 1000
next table: 1830
cur table: 1177
epoch: 1000
next table: 1368
cur table: 1830
epoch: 1000
next table: 1212
cur table: 1368
epoch: 1000
next table: 1177
cur table: 1212
epoch: 1000
next table: 1154
cur table: 1177
epoch: 1000
next table: 2699
cur table: 1374
epoch: 1000
next table: 1188
cur table: 1154
epoch: 1000
next table: 1157
cur table: 1188
epoch: 1000
next table: 1155
cur table: 1157
epoch: 1000
next table: 1121
cur table: 1155
epoch: 1000
next table: 1158
cur table: 1121
epoch: 1000
next table: 1168
cur table: 1158
epoch: 1000
next table: 1169
cur table: 1168
epoch: 1000
next table: 2007
cur table: 2699
epoch: 1000
next table: 1161
cur table: 1169
epoch: 1000
next table: 1142
cur table: 1161
epoch: 1000
next table: 1149
cur table: 1142
epoch: 1000
next table: 1148
cur table: 1149
epoch: 1000
next table: 1125
cur table: 1148
epoch: 1000
next table: 1113
cur table: 1125
epoch: 1000
next table: 1805
cur table: 2007
epoch: 1000
next table: 1065
cur table: 1113
epoch: 1000
next table: 1074
cur table: 1065
epoch: 1000
next table: 1059
cur table: 1074
epoch: 1000
next table: 1065
cur table: 1059
epoch: 1000
next table: 1211
cur table: 1805
epoch: 1000
next table: 1098
cur table: 1065
epoch: 1000
next table: 1108
cur table: 1098
epoch: 1000
next table: 1094
cur table: 1108
epoch: 1000
next table: 1284
cur table: 1211
epoch: 1000
next table: 1092
cur table: 1094
epoch: 1000
next table: 1087
cur table: 1092
epoch: 1000
next table: 1097
cur table: 1087
epoch: 1000
next table: 1263
cur table: 1284
epoch: 1000
next table: 1089
cur table: 1097
epoch: 1000
next table: 1093
cur table: 1089
epoch: 1000
next table: 1081
cur table: 1093
epoch: 1000
next table: 1251
cur table: 1263
epoch: 1000
next table: 1088
cur table: 1081
epoch: 1000
next table: 1107
cur table: 1088
epoch: 1000
next table: 1070
cur table: 1107
epoch: 1000
next table: 1238
cur table: 1251
epoch: 1000
next table: 1070
cur table: 1070
epoch: 1000
next table: 1054
cur table: 1070
epoch: 1000
next table: 1047
cur table: 1054
epoch: 1000
next table: 1176
cur table: 1238
epoch: 1000
next table: 1055
cur table: 1047
epoch: 1000
next table: 1032
cur table: 1055
epoch: 1000
next table: 1040
cur table: 1032
epoch: 1000
next table: 1122
cur table: 1176
epoch: 1000
next table: 1032
cur table: 1040
epoch: 1000
next table: 1044
cur table: 1032
epoch: 1000
next table: 1040
cur table: 1044
epoch: 1000
next table: 1044
cur table: 1040
epoch: 1000
next table: 1136
cur table: 1122
epoch: 1000
next table: 1056
cur table: 1044
epoch: 1000
next table: 1031
cur table: 1056
epoch: 1000
next table: 1040
cur table: 1031
epoch: 1000
next table: 1127
cur table: 1136
epoch: 1000
next table: 1045
cur table: 1040
epoch: 1000
next table: 1040
cur table: 1045
epoch: 1000
next table: 1039
cur table: 1040
epoch: 1000
next table: 1125
cur table: 1127
epoch: 1000
next table: 1053
cur table: 1039
epoch: 1000
next table: 1042
cur table: 1053
epoch: 1000
next table: 1035
cur table: 1042
epoch: 1000
next table: 1105
cur table: 1125
epoch: 1000
next table: 1045
cur table: 1035
epoch: 1000
next table: 1039
cur table: 1045
epoch: 1000
next table: 1078
cur table: 1105
epoch: 1000
next table: 1052
cur table: 1039
epoch: 1000
next table: 1079
cur table: 1052
epoch: 1000
next table: 1064
cur table: 1078
epoch: 1000
next table: 1384
cur table: 1079
epoch: 1000
next table: 1849
cur table: 1384
epoch: 1000
next table: 1406
cur table: 1849
epoch: 1000
next table: 2408
cur table: 1064
epoch: 1000
next table: 1232
cur table: 1406
epoch: 1000
next table: 1154
cur table: 1232
epoch: 1000
next table: 1097
cur table: 1154
epoch: 1000
next table: 1293
cur table: 2408
epoch: 1000
next table: 1046
cur table: 1097
epoch: 1000
next table: 1026
cur table: 1046
epoch: 1000
next table: 1080
cur table: 1293
epoch: 1000
next table: 1046
cur table: 1026
epoch: 1000
next table: 1044
cur table: 1046
epoch: 1000
next table: 1085
cur table: 1080
epoch: 1000
next table: 1037
cur table: 1044
epoch: 1000
next table: 1045
cur table: 1037
epoch: 1000
next table: 1088
cur table: 1085
epoch: 1000
next table: 1039
cur table: 1045
epoch: 1000
next table: 1044
cur table: 1039
epoch: 1000
next table: 1087
cur table: 1088
epoch: 1000
next table: 1043
cur table: 1044
epoch: 1000
next table: 1030
cur table: 1043
epoch: 1000
next table: 1033
cur table: 1030
epoch: 1000
next table: 1047
cur table: 1033
epoch: 1000
next table: 1043
cur table: 1047
epoch: 1000
next table: 1042
cur table: 1043
epoch: 1000
next table: 1051
cur table: 1042
epoch: 1000
next table: 1231
cur table: 1087
epoch: 1000
next table: 1040
cur table: 1051
epoch: 1000
next table: 1042
cur table: 1040
epoch: 1000
next table: 1038
cur table: 1042
epoch: 1000
next table: 1041
cur table: 1038
epoch: 1000
next table: 1038
cur table: 1041
epoch: 1000
next table: 1206
cur table: 1231
epoch: 1000
next table: 1047
cur table: 1038
epoch: 1000
next table: 1038
cur table: 1047
epoch: 1000
next table: 1026
cur table: 1038
epoch: 1000
next table: 1067
cur table: 1026
epoch: 1000
next table: 1153
cur table: 1206
epoch: 1000
next table: 1040
cur table: 1067
epoch: 1000
next table: 1031
cur table: 1040
epoch: 1000
next table: 1032
cur table: 1031
epoch: 1000
next table: 1032
cur table: 1032
epoch: 1000
next table: 1048
cur table: 1032
epoch: 1000
next table: 1049
cur table: 1048
epoch: 1000
next table: 1229
cur table: 1153
epoch: 1000
next table: 1037
cur table: 1049
epoch: 1000
next table: 1043
cur table: 1037
epoch: 1000
next table: 1032
cur table: 1043
epoch: 1000
next table: 1044
cur table: 1032
epoch: 1000
next table: 1160
cur table: 1229
epoch: 1000
next table: 1046
cur table: 1044
epoch: 1000
next table: 1057
cur table: 1046
epoch: 1000
next table: 1048
cur table: 1057
epoch: 1000
next table: 1035
cur table: 1048
epoch: 1000
next table: 1159
cur table: 1160
epoch: 1000
next table: 1033
cur table: 1035
epoch: 1000
next table: 1033
cur table: 1033
epoch: 1000
next table: 1040
cur table: 1033
epoch: 1000
next table: 1043
cur table: 1040
epoch: 1000
next table: 1131
cur table: 1159
epoch: 1000
next table: 1049
cur table: 1043
epoch: 1000
next table: 1052
cur table: 1049
epoch: 1000
next table: 1122
cur table: 1131
epoch: 1000
next table: 1040
cur table: 1052
epoch: 1000
next table: 1044
cur table: 1040
epoch: 1000
next table: 1053
cur table: 1044
epoch: 1000
next table: 1080
cur table: 1122
epoch: 1000
next table: 1074
cur table: 1053
epoch: 1000
next table: 1386
cur table: 1074
epoch: 1000
next table: 1722
cur table: 1386
epoch: 1000
next table: 2055
cur table: 1080
epoch: 1000
next table: 1287
cur table: 1722
epoch: 1000
next table: 1218
cur table: 1287
epoch: 1000
next table: 1215
cur table: 1218
epoch: 1000
next table: 1210
cur table: 1215
epoch: 1000
next table: 1619
cur table: 2055
epoch: 1000
next table: 1212
cur table: 1210
epoch: 1000
next table: 1202
cur table: 1212
epoch: 1000
next table: 1470
cur table: 1619
epoch: 1000
next table: 1228
cur table: 1202
epoch: 1000
next table: 1208
cur table: 1228
epoch: 1000
next table: 1238
cur table: 1208
epoch: 1000
next table: 1674
cur table: 1470
epoch: 1000
next table: 1222
cur table: 1238
epoch: 1000
next table: 1212
cur table: 1222
epoch: 1000
next table: 1220
cur table: 1212
epoch: 1000
next table: 1194
cur table: 1220
epoch: 1000
next table: 1210
cur table: 1194
epoch: 1000
next table: 1921
cur table: 1674
epoch: 1000
next table: 1187
cur table: 1210
epoch: 1000
next table: 1148
cur table: 1187
epoch: 1000
next table: 1140
cur table: 1148
epoch: 1000
next table: 1112
cur table: 1140
epoch: 1000
next table: 1498
cur table: 1921
epoch: 1000
next table: 1078
cur table: 1112
epoch: 1000
next table: 1067
cur table: 1078
epoch: 1000
next table: 1171
cur table: 1498
epoch: 1000
next table: 1074
cur table: 1067
epoch: 1000
next table: 1154
cur table: 1074
epoch: 1000
next table: 1135
cur table: 1154
epoch: 1000
next table: 1390
cur table: 1171
epoch: 1000
next table: 1148
cur table: 1135
epoch: 1000
next table: 1141
cur table: 1148
epoch: 1000
next table: 1121
cur table: 1141
epoch: 1000
next table: 1399
cur table: 1390
epoch: 1000
next table: 1140
cur table: 1121
epoch: 1000
next table: 1157
cur table: 1140
epoch: 1000
next table: 1142
cur table: 1157
epoch: 1000
next table: 1123
cur table: 1142
epoch: 1000
next table: 1143
cur table: 1123
epoch: 1000
next table: 1555
cur table: 1399
epoch: 1000
next table: 1115
cur table: 1143
epoch: 1000
next table: 1087
cur table: 1115
epoch: 1000
next table: 1078
cur table: 1087
epoch: 1000
next table: 1337
cur table: 1555
epoch: 1000
next table: 1091
cur table: 1078
epoch: 1000
next table: 1045
cur table: 1091
epoch: 1000
next table: 1066
cur table: 1045
epoch: 1000
next table: 1034
cur table: 1066
epoch: 1000
next table: 1150
cur table: 1337
epoch: 1000
next table: 1044
cur table: 1034
epoch: 1000
next table: 1045
cur table: 1044
epoch: 1000
next table: 1032
cur table: 1045
epoch: 1000
next table: 1041
cur table: 1032
epoch: 1000
next table: 1150
cur table: 1150
epoch: 1000
next table: 1052
cur table: 1041
epoch: 1000
next table: 1054
cur table: 1052
epoch: 1000
next table: 1036
cur table: 1054
epoch: 1000
next table: 1043
cur table: 1036
epoch: 1000
next table: 1179
cur table: 1150
epoch: 1000
next table: 1040
cur table: 1043
epoch: 1000
next table: 1035
cur table: 1040
epoch: 1000
next table: 1044
cur table: 1035
epoch: 1000
next table: 1037
cur table: 1044
epoch: 1000
next table: 1161
cur table: 1179
epoch: 1000
next table: 1040
cur table: 1037
epoch: 1000
next table: 1039
cur table: 1040
epoch: 1000
next table: 1054
cur table: 1039
epoch: 1000
next table: 1040
cur table: 1054
epoch: 1000
next table: 1129
cur table: 1161
epoch: 1000
next table: 1065
cur table: 1040
epoch: 1000
next table: 1053
cur table: 1065
epoch: 1000
next table: 1474
cur table: 1053
epoch: 1000
next table: 1774
cur table: 1474
epoch: 1000
next table: 2233
cur table: 1129
epoch: 1000
next table: 1401
cur table: 1774
epoch: 1000
next table: 1197
cur table: 1401
epoch: 1000
next table: 1106
cur table: 1197
epoch: 1000
next table: 1457
cur table: 2233
epoch: 1000
next table: 1062
cur table: 1106
epoch: 1000
next table: 1049
cur table: 1062
epoch: 1000
next table: 1029
cur table: 1049
epoch: 1000
next table: 1098
cur table: 1457
epoch: 1000
next table: 1034
cur table: 1029
epoch: 1000
next table: 1037
cur table: 1034
epoch: 1000
next table: 1046
cur table: 1037
epoch: 1000
next table: 1041
cur table: 1046
epoch: 1000
next table: 1147
cur table: 1098
epoch: 1000
next table: 1035
cur table: 1041
epoch: 1000
next table: 1049
cur table: 1035
epoch: 1000
next table: 1047
cur table: 1049
epoch: 1000
next table: 1039
cur table: 1047
epoch: 1000
next table: 1151
cur table: 1147
epoch: 1000
next table: 1042
cur table: 1039
epoch: 1000
next table: 1049
cur table: 1042
epoch: 1000
next table: 1050
cur table: 1049
epoch: 1000
next table: 1123
cur table: 1151
epoch: 1000
next table: 1044
cur table: 1050
epoch: 1000
next table: 1036
cur table: 1044
epoch: 1000
next table: 1099
cur table: 1123
epoch: 1000
next table: 1037
cur table: 1036
epoch: 1000
next table: 1044
cur table: 1037
epoch: 1000
next table: 1053
cur table: 1044
epoch: 1000
next table: 1104
cur table: 1099
epoch: 1000
next table: 1041
cur table: 1053
epoch: 1000
next table: 1037
cur table: 1041
epoch: 1000
next table: 1049
cur table: 1037
epoch: 1000
next table: 1135
cur table: 1104
epoch: 1000
next table: 1039
cur table: 1049
epoch: 1000
next table: 1043
cur table: 1039
epoch: 1000
next table: 1058
cur table: 1043
epoch: 1000
next table: 1034
cur table: 1058
epoch: 1000
next table: 1174
cur table: 1135
epoch: 1000
next table: 1047
cur table: 1034
epoch: 1000
next table: 1039
cur table: 1047
epoch: 1000
next table: 1036
cur table: 1039
epoch: 1000
next table: 1044
cur table: 1036
epoch: 1000
next table: 1141
cur table: 1174
epoch: 1000
next table: 1037
cur table: 1044
epoch: 1000
next table: 1044
cur table: 1037
epoch: 1000
next table: 1031
cur table: 1044
epoch: 1000
next table: 1037
cur table: 1031
epoch: 1000
next table: 1145
cur table: 1141
epoch: 1000
next table: 1053
cur table: 1037
epoch: 1000
next table: 1046
cur table: 1053
epoch: 1000
next table: 1054
cur table: 1046
epoch: 1000
next table: 1046
cur table: 1054
epoch: 1000
next table: 1164
cur table: 1145
epoch: 1000
next table: 1035
cur table: 1046
epoch: 1000
next table: 1037
cur table: 1035
epoch: 1000
next table: 1045
cur table: 1037
epoch: 1000
next table: 1119
cur table: 1164
epoch: 1000
next table: 1041
cur table: 1045
epoch: 1000
next table: 1044
cur table: 1041
epoch: 1000
next table: 1043
cur table: 1044
epoch: 1000
next table: 1109
cur table: 1119
epoch: 1000
next table: 1037
cur table: 1043
epoch: 1000
next table: 1038
cur table: 1037
epoch: 1000
next table: 1053
cur table: 1038
epoch: 1000
next table: 1083
cur table: 1109
epoch: 1000
next table: 1081
cur table: 1053
epoch: 1000
next table: 1052
cur table: 1081
epoch: 1000
next table: 1730
cur table: 1052
epoch: 1000
next table: 1692
cur table: 1083
epoch: 1000
next table: 1701
cur table: 1730
epoch: 1000
next table: 1251
cur table: 1701
epoch: 1000
next table: 1177
cur table: 1251
epoch: 1000
next table: 1891
cur table: 1692
epoch: 1000
next table: 1053
cur table: 1177
epoch: 1000
next table: 1067
cur table: 1053
epoch: 1000
next table: 1040
cur table: 1067
epoch: 1000
next table: 1121
cur table: 1891
epoch: 1000
next table: 1051
cur table: 1040
epoch: 1000
next table: 1041
cur table: 1051
epoch: 1000
next table: 1038
cur table: 1041
epoch: 1000
next table: 1127
cur table: 1121
epoch: 1000
next table: 1042
cur table: 1038
epoch: 1000
next table: 1040
cur table: 1042
epoch: 1000
next table: 1039
cur table: 1040
epoch: 1000
next table: 1036
cur table: 1039
epoch: 1000
next table: 1166
cur table: 1127
epoch: 1000
next table: 1050
cur table: 1036
epoch: 1000
next table: 1039
cur table: 1050
epoch: 1000
next table: 1055
cur table: 1039
epoch: 1000
next table: 1036
cur table: 1055
epoch: 1000
next table: 1127
cur table: 1166
epoch: 1000
next table: 1045
cur table: 1036
epoch: 1000
next table: 1038
cur table: 1045
epoch: 1000
next table: 1043
cur table: 1038
epoch: 1000
next table: 1124
cur table: 1127
epoch: 1000
next table: 1049
cur table: 1043
epoch: 1000
next table: 1035
cur table: 1049
epoch: 1000
next table: 1046
cur table: 1035
epoch: 1000
next table: 1135
cur table: 1124
epoch: 1000
next table: 1030
cur table: 1046
epoch: 1000
next table: 1048
cur table: 1030
epoch: 1000
next table: 1032
cur table: 1048
epoch: 1000
next table: 1039
cur table: 1032
epoch: 1000
next table: 1075
cur table: 1039
epoch: 1000
next table: 1186
cur table: 1135
epoch: 1000
next table: 1039
cur table: 1075
epoch: 1000
next table: 1051
cur table: 1039
epoch: 1000
next table: 1037
cur table: 1051
epoch: 1000
next table: 1031
cur table: 1037
epoch: 1000
next table: 1174
cur table: 1186
epoch: 1000
next table: 1050
cur table: 1031
epoch: 1000
next table: 1045
cur table: 1050
epoch: 1000
next table: 1039
cur table: 1045
epoch: 1000
next table: 1051
cur table: 1039
epoch: 1000
next table: 1036
cur table: 1051
epoch: 1000
next table: 1191
cur table: 1174
epoch: 1000
next table: 1052
cur table: 1036
epoch: 1000
next table: 1050
cur table: 1052
epoch: 1000
next table: 1056
cur table: 1050
epoch: 1000
next table: 1042
cur table: 1056
epoch: 1000
next table: 1041
cur table: 1042
epoch: 1000
next table: 1192
cur table: 1191
epoch: 1000
next table: 1038
cur table: 1041
epoch: 1000
next table: 1040
cur table: 1038
epoch: 1000
next table: 1027
cur table: 1040
epoch: 1000
next table: 1040
cur table: 1027
epoch: 1000
next table: 1163
cur table: 1192
epoch: 1000
next table: 1044
cur table: 1040
epoch: 1000
next table: 1044
cur table: 1044
epoch: 1000
next table: 1042
cur table: 1044
epoch: 1000
next table: 1046
cur table: 1042
epoch: 1000
next table: 1087
cur table: 1046
epoch: 1000
next table: 1180
cur table: 1163
epoch: 1000
next table: 1051
cur table: 1087
epoch: 1000
next table: 1666
cur table: 1051
epoch: 1000
next table: 1711
cur table: 1666
epoch: 1000
next table: 1334
cur table: 1711
epoch: 1000
next table: 1154
cur table: 1334
epoch: 1000
next table: 1095
cur table: 1154
epoch: 1000
next table: 1114
cur table: 1095
epoch: 1000
next table: 2667
cur table: 1180
epoch: 1000
next table: 1057
cur table: 1114
epoch: 1000
next table: 1040
cur table: 1057
epoch: 1000
next table: 1041
cur table: 1040
epoch: 1000
next table: 1030
cur table: 1041
epoch: 1000
next table: 1045
cur table: 1030
epoch: 1000
next table: 1047
cur table: 1045
epoch: 1000
next table: 1036
cur table: 1047
epoch: 1000
next table: 1044
cur table: 1036
epoch: 1000
next table: 1321
cur table: 2667
epoch: 1000
next table: 1041
cur table: 1044
epoch: 1000
next table: 1053
cur table: 1041
epoch: 1000
next table: 1052
cur table: 1053
epoch: 1000
next table: 1033
cur table: 1052
epoch: 1000
next table: 1039
cur table: 1033
epoch: 1000
next table: 1050
cur table: 1039
epoch: 1000
next table: 1047
cur table: 1050
epoch: 1000
next table: 1052
cur table: 1047
epoch: 1000
next table: 1033
cur table: 1052
epoch: 1000
next table: 1045
cur table: 1033
epoch: 1000
next table: 1397
cur table: 1321
epoch: 1000
next table: 1042
cur table: 1045
epoch: 1000
next table: 1040
cur table: 1042
epoch: 1000
next table: 1044
cur table: 1040
epoch: 1000
next table: 1034
cur table: 1044
epoch: 1000
next table: 1066
cur table: 1034
epoch: 1000
next table: 1030
cur table: 1066
epoch: 1000
next table: 1044
cur table: 1030
epoch: 1000
next table: 1038
cur table: 1044
epoch: 1000
next table: 1047
cur table: 1038
epoch: 1000
next table: 1036
cur table: 1047
epoch: 1000
next table: 1050
cur table: 1036
epoch: 1000
next table: 1435
cur table: 1397
epoch: 1000
next table: 1040
cur table: 1050
epoch: 1000
next table: 1041
cur table: 1040
epoch: 1000
next table: 1025
cur table: 1041
epoch: 1000
next table: 1050
cur table: 1025
epoch: 1000
next table: 1036
cur table: 1050
epoch: 1000
next table: 1058
cur table: 1036
epoch: 1000
next table: 1042
cur table: 1058
epoch: 1000
next table: 1277
cur table: 1435
epoch: 1000
next table: 1038
cur table: 1042
epoch: 1000
next table: 1041
cur table: 1038
epoch: 1000
next table: 1046
cur table: 1041
epoch: 1000
next table: 1036
cur table: 1046
epoch: 1000
next table: 1042
cur table: 1036
epoch: 1000
next table: 1176
cur table: 1277
epoch: 1000
next table: 1046
cur table: 1042
epoch: 1000
next table: 1047
cur table: 1046
epoch: 1000
next table: 1053
cur table: 1047
epoch: 1000
next table: 1048
cur table: 1053
epoch: 1000
next table: 1150
cur table: 1176
epoch: 1000
next table: 1070
cur table: 1048
epoch: 1000
next table: 1074
cur table: 1070
epoch: 1000
next table: 1869
cur table: 1074
epoch: 1000
next table: 1607
cur table: 1869
epoch: 1000
next table: 1272
cur table: 1607
epoch: 1000
next table: 2517
cur table: 1150
epoch: 1000
next table: 1118
cur table: 1272
epoch: 1000
next table: 1120
cur table: 1118
epoch: 1000
next table: 1045
cur table: 1120
epoch: 1000
next table: 1055
cur table: 1045
epoch: 1000
next table: 1251
cur table: 2517
epoch: 1000
next table: 1042
cur table: 1055
epoch: 1000
next table: 1042
cur table: 1042
epoch: 1000
next table: 1036
cur table: 1042
epoch: 1000
next table: 1044
cur table: 1036
epoch: 1000
next table: 1046
cur table: 1044
epoch: 1000
next table: 1040
cur table: 1046
epoch: 1000
next table: 1211
cur table: 1251
epoch: 1000
next table: 1036
cur table: 1040
epoch: 1000
next table: 1038
cur table: 1036
epoch: 1000
next table: 1036
cur table: 1038
epoch: 1000
next table: 1053
cur table: 1036
epoch: 1000
next table: 1162
cur table: 1211
epoch: 1000
next table: 1036
cur table: 1053
epoch: 1000
next table: 1047
cur table: 1036
epoch: 1000
next table: 1041
cur table: 1047
epoch: 1000
next table: 1050
cur table: 1041
epoch: 1000
next table: 1041
cur table: 1050
epoch: 1000
next table: 1178
cur table: 1162
epoch: 1000
next table: 1049
cur table: 1041
epoch: 1000
next table: 1045
cur table: 1049
epoch: 1000
next table: 1042
cur table: 1045
epoch: 1000
next table: 1052
cur table: 1042
epoch: 1000
next table: 1040
cur table: 1052
epoch: 1000
next table: 1225
cur table: 1178
epoch: 1000
next table: 1043
cur table: 1040
epoch: 1000
next table: 1061
cur table: 1043
epoch: 1000
next table: 1038
cur table: 1061
epoch: 1000
next table: 1050
cur table: 1038
epoch: 1000
next table: 1054
cur table: 1050
epoch: 1000
next table: 1042
cur table: 1054
epoch: 1000
next table: 1241
cur table: 1225
epoch: 1000
next table: 1037
cur table: 1042
epoch: 1000
next table: 1042
cur table: 1037
epoch: 1000
next table: 1045
cur table: 1042
epoch: 1000
next table: 1044
cur table: 1045
epoch: 1000
next table: 1042
cur table: 1044
epoch: 1000
next table: 1041
cur table: 1042
epoch: 1000
next table: 1252
cur table: 1241
epoch: 1000
next table: 1064
cur table: 1041
epoch: 1000
next table: 1046
cur table: 1064
epoch: 1000
next table: 1043
cur table: 1046
epoch: 1000
next table: 1034
cur table: 1043
epoch: 1000
next table: 1035
cur table: 1034
epoch: 1000
next table: 1208
cur table: 1252
epoch: 1000
next table: 1036
cur table: 1035
epoch: 1000
next table: 1035
cur table: 1036
epoch: 1000
next table: 1044
cur table: 1035
epoch: 1000
next table: 1034
cur table: 1044
epoch: 1000
next table: 1067
cur table: 1034
epoch: 1000
next table: 1179
cur table: 1208
epoch: 1000
next table: 1038
cur table: 1067
epoch: 1000
next table: 1066
cur table: 1038
epoch: 1000
next table: 1063
cur table: 1066
epoch: 1000
next table: 1403
cur table: 1063
epoch: 1000
next table: 1872
cur table: 1403
epoch: 1000
next table: 1380
cur table: 1872
epoch: 1000
next table: 2353
cur table: 1179
epoch: 1000
next table: 1218
cur table: 1380
epoch: 1000
next table: 1103
cur table: 1218
epoch: 1000
next table: 1072
cur table: 1103
epoch: 1000
next table: 1037
cur table: 1072
epoch: 1000
next table: 1037
cur table: 1037
epoch: 1000
next table: 1406
cur table: 2353
epoch: 1000
next table: 1042
cur table: 1037
epoch: 1000
next table: 1036
cur table: 1042
epoch: 1000
next table: 1041
cur table: 1036
epoch: 1000
next table: 1045
cur table: 1041
epoch: 1000
next table: 1043
cur table: 1045
epoch: 1000
next table: 1042
cur table: 1043
epoch: 1000
next table: 1242
cur table: 1406
epoch: 1000
next table: 1039
cur table: 1042
epoch: 1000
next table: 1048
cur table: 1039
epoch: 1000
next table: 1041
cur table: 1048
epoch: 1000
next table: 1051
cur table: 1041
epoch: 1000
next table: 1048
cur table: 1051
epoch: 1000
next table: 1193
cur table: 1242
epoch: 1000
next table: 1036
cur table: 1048
epoch: 1000
next table: 1045
cur table: 1036
epoch: 1000
next table: 1036
cur table: 1045
epoch: 1000
next table: 1037
cur table: 1036
epoch: 1000
next table: 1045
cur table: 1037
epoch: 1000
next table: 1041
cur table: 1045
epoch: 1000
next table: 1213
cur table: 1193
epoch: 1000
next table: 1040
cur table: 1041
epoch: 1000
next table: 1046
cur table: 1040
epoch: 1000
next table: 1037
cur table: 1046
epoch: 1000
next table: 1061
cur table: 1037
epoch: 1000
next table: 1032
cur table: 1061
epoch: 1000
next table: 1043
cur table: 1032
epoch: 1000
next table: 1265
cur table: 1213
epoch: 1000
next table: 1052
cur table: 1043
epoch: 1000
next table: 1030
cur table: 1052
epoch: 1000
next table: 1055
cur table: 1030
epoch: 1000
next table: 1044
cur table: 1055
epoch: 1000
next table: 1043
cur table: 1044
epoch: 1000
next table: 1044
cur table: 1043
epoch: 1000
next table: 1209
cur table: 1265
epoch: 1000
next table: 1033
cur table: 1044
epoch: 1000
next table: 1042
cur table: 1033
epoch: 1000
next table: 1054
cur table: 1042
epoch: 1000
next table: 1057
cur table: 1054
epoch: 1000
next table: 1051
cur table: 1057
epoch: 1000
next table: 1224
cur table: 1209
epoch: 1000
next table: 1037
cur table: 1051
epoch: 1000
next table: 1044
cur table: 1037
epoch: 1000
next table: 1042
cur table: 1044
epoch: 1000
next table: 1035
cur table: 1042
epoch: 1000
next table: 1041
cur table: 1035
epoch: 1000
next table: 1165
cur table: 1224
epoch: 1000
next table: 1039
cur table: 1041
epoch: 1000
next table: 1043
cur table: 1039
epoch: 1000
next table: 1049
cur table: 1043
epoch: 1000
next table: 1050
cur table: 1049
epoch: 1000
next table: 1156
cur table: 1165
epoch: 1000
next table: 1072
cur table: 1050
epoch: 1000
next table: 1063
cur table: 1072
epoch: 1000
next table: 1813
cur table: 1063
epoch: 1000
next table: 1473
cur table: 1813
epoch: 1000
next table: 1235
cur table: 1473
epoch: 1000
next table: 1186
cur table: 1235
epoch: 1000
next table: 1163
cur table: 1186
epoch: 1000
next table: 2556
cur table: 1156
epoch: 1000
next table: 1164
cur table: 1163
epoch: 1000
next table: 1176
cur table: 1164
epoch: 1000
next table: 1147
cur table: 1176
epoch: 1000
next table: 1133
cur table: 1147
epoch: 1000
next table: 1160
cur table: 1133
epoch: 1000
next table: 1739
cur table: 2556
epoch: 1000
next table: 1186
cur table: 1160
epoch: 1000
next table: 1179
cur table: 1186
epoch: 1000
next table: 1178
cur table: 1179
epoch: 1000
next table: 1169
cur table: 1178
epoch: 1000
next table: 1156
cur table: 1169
epoch: 1000
next table: 1909
cur table: 1739
epoch: 1000
next table: 1141
cur table: 1156
epoch: 1000
next table: 1116
cur table: 1141
epoch: 1000
next table: 1112
cur table: 1116
epoch: 1000
next table: 1057
cur table: 1112
epoch: 1000
next table: 1318
cur table: 1909
epoch: 1000
next table: 1078
cur table: 1057
epoch: 1000
next table: 1060
cur table: 1078
epoch: 1000
next table: 1065
cur table: 1060
epoch: 1000
next table: 1198
cur table: 1318
epoch: 1000
next table: 1093
cur table: 1065
epoch: 1000
next table: 1096
cur table: 1093
epoch: 1000
next table: 1091
cur table: 1096
epoch: 1000
next table: 1109
cur table: 1091
epoch: 1000
next table: 1329
cur table: 1198
epoch: 1000
next table: 1096
cur table: 1109
epoch: 1000
next table: 1088
cur table: 1096
[...]
cur table: 1362
epoch: 1000
next table: 1064
cur table: 1193
epoch: 1000
next table: 1047
cur table: 1064
epoch: 1000
next table: 1154
cur table: 1047
epoch: 1000
next table: 1195
cur table: 1154
epoch: 1000
next table: 1979
cur table: 3050
epoch: 1000
next table: 1224
cur table: 1195
epoch: 1000
next table: 1211
cur table: 1224
epoch: 1000
next table: 1241
cur table: 1211
epoch: 1000
next table: 1217
cur table: 1241
epoch: 1000
next table: 1202
cur table: 1217
epoch: 1000
next table: 1184
cur table: 1202
epoch: 1000
next table: 1208
cur table: 1184
epoch: 1000
next table: 1169
cur table: 1208
epoch: 1000
next table: 2401
cur table: 1979
epoch: 1000
next table: 1226
cur table: 1169
epoch: 1000
next table: 1184
cur table: 1226
epoch: 1000
next table: 1204
cur table: 1184
epoch: 1000
next table: 1231
cur table: 1204
epoch: 1000
next table: 1195
cur table: 1231
epoch: 1000
next table: 1221
cur table: 1195
epoch: 1000
next table: 1213
cur table: 1221
epoch: 1000
next table: 1214
cur table: 1213
epoch: 1000
next table: 1184
cur table: 1214
epoch: 1000
next table: 1199
cur table: 1184
epoch: 1000
next table: 1203
cur table: 1199
epoch: 1000
next table: 3215
cur table: 2401
epoch: 1000
next table: 1227
cur table: 1203
epoch: 1000
next table: 1202
cur table: 1227
epoch: 1000
next table: 1202
cur table: 1202
epoch: 1000
next table: 1241
cur table: 1202
epoch: 1000
next table: 1208
cur table: 1241
epoch: 1000
next table: 1243
cur table: 1208
epoch: 1000
next table: 1199
cur table: 1243
epoch: 1000
next table: 1197
cur table: 1199
Heartbeat CPU 0 instructions: 100000000 cycles: 123575432 heartbeat IPC: 0.478389 cumulative IPC: 0.471854 (Simulation time: 1 hr 35 min 59 sec) 
Finished CPU 0 instructions: 50000003 cycles: 105965023 cumulative IPC: 0.471854 (Simulation time: 1 hr 35 min 59 sec) 

ChampSim completed all CPUs

Region of Interest Statistics

CPU 0 cumulative IPC: 0.471854 instructions: 50000003 cycles: 105965023
ITLB TOTAL     ACCESS:    9849413  HIT:    9849413  MISS:          0  HIT %:        100  MISS %:          0   MPKI: 0
ITLB LOAD TRANSLATION ACCESS:    9849413  HIT:    9849413  MISS:          0  HIT %:        100  MISS %:          0   MPKI: 0
ITLB PREFETCH  REQUESTED:          0  ISSUED:          0  USEFUL:          0  USELESS:          0
ITLB USEFUL LOAD PREFETCHES:          0 PREFETCH ISSUED TO LOWER LEVEL:          0  ACCURACY: -nan
ITLB TIMELY PREFETCHES:          0 LATE PREFETCHES: 0 DROPPED PREFETCHES: 0
ITLB PREFETCHES SAME FILL-ORIGIN LEVEL: 0 DIFFERENT FILL-ORIGIN LEVEL: 0
ITLB AVERAGE MISS LATENCY: -nan cycles
ITLB RQ	ACCESS:   12097683	FORWARD:          0	MERGED:    2248270	TO_CACHE:    9849413

Revised Interactions: positive negative neutral
ITLB_interactions 0 0 0 -nan -nan -nan
DTLB TOTAL     ACCESS:   15707090  HIT:   15511645  MISS:     195445  HIT %:    98.7557  MISS %:    1.24431   MPKI: 3.9089
DTLB LOAD TRANSLATION ACCESS:   15707090  HIT:   15511645  MISS:     195445  HIT %:    98.7557  MISS %:    1.24431   MPKI: 3.9089
DTLB PREFETCH  REQUESTED:          0  ISSUED:          0  USEFUL:          0  USELESS:          0
DTLB USEFUL LOAD PREFETCHES:          0 PREFETCH ISSUED TO LOWER LEVEL:          0  ACCURACY: -nan
DTLB TIMELY PREFETCHES:          0 LATE PREFETCHES: 0 DROPPED PREFETCHES: 0
DTLB PREFETCHES SAME FILL-ORIGIN LEVEL: 0 DIFFERENT FILL-ORIGIN LEVEL: 0
DTLB AVERAGE MISS LATENCY: 15.4404 cycles
DTLB RQ	ACCESS:   19471138	FORWARD:          0	MERGED:    3757773	TO_CACHE:   15713365

Revised Interactions: positive negative neutral
DTLB_interactions 0 0 0 -nan -nan -nan
STLB TOTAL     ACCESS:    5651383  HIT:    5646896  MISS:       4487  HIT %:    99.9206  MISS %:  0.0793965   MPKI: 0.08974
STLB LOAD TRANSLATION ACCESS:     195445  HIT:     190960  MISS:       4485  HIT %:    97.7052  MISS %:    2.29476   MPKI: 0.0897
STLB TRANSLATION FROM L1D PREFETCHER ACCESS:    5455938  HIT:    5455936  MISS:          2  HIT %:        100  MISS %: 3.66573e-05   MPKI: 4e-05
STLB PREFETCH  REQUESTED:          0  ISSUED:          0  USEFUL:          2  USELESS:          0
STLB USEFUL LOAD PREFETCHES:          2 PREFETCH ISSUED TO LOWER LEVEL:          0  ACCURACY: inf
STLB TIMELY PREFETCHES:          2 LATE PREFETCHES: 0 DROPPED PREFETCHES: 0
STLB PREFETCHES SAME FILL-ORIGIN LEVEL: 0 DIFFERENT FILL-ORIGIN LEVEL: 0
STLB AVERAGE MISS LATENCY: 279.913 cycles
STLB RQ	ACCESS:   16742496	FORWARD:          0	MERGED:   11091112	TO_CACHE:    5651384

Revised Interactions: positive negative neutral
STLB_interactions 0 0 0 -nan -nan -nan
STLB Hit, L1D data hit: 0
STLB Hit, L2C data hit: 0
STLB Hit, LLC data hit: 0
STLB Hit, LLC data miss: 0
STLB STLB hints to L2: 0
L1D TOTAL     ACCESS:   31881887  HIT:   19971500  MISS:   11910387  HIT %:    62.6422  MISS %:    37.3578   MPKI: 238.208
L1D LOAD      ACCESS:   14197356  HIT:   12213790  MISS:    1983566  HIT %:    86.0286  MISS %:    13.9714   MPKI: 39.6713
L1D RFO       ACCESS:    2606857  HIT:    2456647  MISS:     150210  HIT %:    94.2379  MISS %:    5.76211   MPKI: 3.0042
L1D PREFETCH  ACCESS:   15077674  HIT:    5301063  MISS:    9776611  HIT %:    35.1584  MISS %:    64.8416   MPKI: 195.532
L1D PREFETCH  REQUESTED:   38163942  ISSUED:   33222613  USEFUL:    4206687  USELESS:    5569862
L1D USEFUL LOAD PREFETCHES:    4206687 PREFETCH ISSUED TO LOWER LEVEL:    9776832  ACCURACY: 43.0271
L1D TIMELY PREFETCHES:    4206687 LATE PREFETCHES: 1931347 DROPPED PREFETCHES: 0
L1D PREFETCHES SAME FILL-ORIGIN LEVEL: 9776832 DIFFERENT FILL-ORIGIN LEVEL: 0
L1D AVERAGE MISS LATENCY: 1266.29 cycles
L1D RQ	ACCESS:   20567845	FORWARD:          0	MERGED:    4215021	TO_CACHE:   16322599
L1D WQ	ACCESS:    3711168	FORWARD:      30225	MERGED:     562629	TO_CACHE:    3148539
L1D PQ	ACCESS:   16675562	FORWARD:          0	MERGED:     128511	TO_CACHE:   16547051

Revised Interactions: positive negative neutral
L1D_interactions 0 0 0 -nan -nan -nan
L1D UNIQUE REGIONS ACCESSED: 0
L1D REGIONS CONFLICTS: 0
L1D Cross Page Prefetch Requests: 0
L1D Same Page Prefetch Requests: 30717563
L1D ROI Sum of L1D PQ occupancy: 582886842
L1D PREFETCHES PUSHED FROM L2C: 0
L1I TOTAL     ACCESS:   12097681  HIT:   12097681  MISS:          0  HIT %:        100  MISS %:          0   MPKI: 0
L1I LOAD      ACCESS:   12097681  HIT:   12097681  MISS:          0  HIT %:        100  MISS %:          0   MPKI: 0
L1I PREFETCH  REQUESTED:          0  ISSUED:          0  USEFUL:          0  USELESS:          0
L1I USEFUL LOAD PREFETCHES:          0 PREFETCH ISSUED TO LOWER LEVEL:          0  ACCURACY: -nan
L1I TIMELY PREFETCHES:          0 LATE PREFETCHES: 0 DROPPED PREFETCHES: 0
L1I PREFETCHES SAME FILL-ORIGIN LEVEL: 0 DIFFERENT FILL-ORIGIN LEVEL: 0
L1I AVERAGE MISS LATENCY: -nan cycles
L1I RQ	ACCESS:   16426556	FORWARD:          0	MERGED:    4328873	TO_CACHE:   12097683

Revised Interactions: positive negative neutral
L1I_interactions 0 0 0 -nan -nan -nan
BTB TOTAL     ACCESS:    8795729  HIT:    8795697  MISS:         32  HIT %:    99.9996  MISS %: 0.000363813   MPKI: 0.00064
BTB BRANCH_DIRECT_JUMP	ACCESS:    2039126  HIT:    2039120  MISS:          6
BTB BRANCH_INDIRECT	ACCESS:          0  HIT:          0  MISS:          0
BTB BRANCH_CONDITIONAL	ACCESS:    6755819  HIT:    6755797  MISS:         22
BTB BRANCH_DIRECT_CALL	ACCESS:        392  HIT:        390  MISS:          2
BTB BRANCH_INDIRECT_CALL	ACCESS:          0  HIT:          0  MISS:          0
BTB BRANCH_RETURN	ACCESS:        392  HIT:        390  MISS:          2
BTB BRANCH_OTHER ACCESS:          0  HIT:          0  MISS:          0

L2C TOTAL     ACCESS:   12206704  HIT:    1248714  MISS:   10957990  HIT %:    10.2297  MISS %:    89.7703   MPKI: 219.16
L2C LOAD      ACCESS:    1983562  HIT:     207637  MISS:    1775925  HIT %:    10.4679  MISS %:    89.5321   MPKI: 35.5185
L2C DATA LOAD MPKI: 35.5185
L2C INSTRUCTION LOAD MPKI: 0
L2C RFO       ACCESS:     150015  HIT:       1179  MISS:     148836  HIT %:   0.785921  MISS %:    99.2141   MPKI: 2.97672
L2C PREFETCH  ACCESS:    9876149  HIT:     942582  MISS:    8933567  HIT %:    9.54402  MISS %:     90.456   MPKI: 178.671
L2C DATA PREFETCH MPKI: 178.671
L2C INSTRUCTION PREFETCH MPKI: 0
L2C WRITEBACK ACCESS:     192487  HIT:      95539  MISS:      96948  HIT %:     49.634  MISS %:     50.366   MPKI: 1.93896
L2C LOAD TRANSLATION ACCESS:       4489  HIT:       1777  MISS:       2712  HIT %:    39.5857  MISS %:    60.4143   MPKI: 0.05424
L2C TRANSLATION FROM L1D PREFETCHER ACCESS:          2  HIT:          0  MISS:          2  HIT %:          0  MISS %:        100   MPKI: 4e-05
L2C PREFETCH  REQUESTED:     172094  ISSUED:     172091  USEFUL:      27774  USELESS:    8906993
L2C USEFUL LOAD PREFETCHES:      27774 PREFETCH ISSUED TO LOWER LEVEL:    8933791  ACCURACY: 0.310887
L2C TIMELY PREFETCHES:      27774 LATE PREFETCHES: 212 DROPPED PREFETCHES: 0
L2C PREFETCHES SAME FILL-ORIGIN LEVEL: 63921 DIFFERENT FILL-ORIGIN LEVEL: 0
L2C AVERAGE MISS LATENCY: 93.1661 cycles
L2C RQ	ACCESS:    2138072	FORWARD:          0	MERGED:          0	TO_CACHE:    2138068
L2C WQ	ACCESS:     192487	FORWARD:         11	MERGED:          0	TO_CACHE:     192487
L2C PQ	ACCESS:    9948911	FORWARD:          0	MERGED:      61111	TO_CACHE:    9887793

Revised Interactions: positive negative neutral
L2C_interactions 12679 8921292 1526284 0.121211 85.2875 14.5913
L2C Instructions Evicting Data 0
L2C Translations Evicting Data 2714
L2C Data Evicting Data 10855697
L2C Instructions Evicting Instructions 0
L2C Translations Evicting Instructions 0
L2C Data Evicting Instructions 0
L2C Instructions Evicting Translations 0
L2C Translations Evicting Translations 0
L2C Data Evicting Translations 2631
L2C Dense regions hint from L2: 0
PSCL5 TOTAL     ACCESS:       4487  HIT:       4487  MISS:          0  HIT %:        100  MISS %:          0   MPKI: 0
PSCL5 LOAD TRANSLATION ACCESS:       4485  HIT:       4485  MISS:          0  HIT %:        100  MISS %:          0   MPKI: 0
PSCL5 TRANSLATION FROM L1D PREFETCHER ACCESS:          2  HIT:          2  MISS:          0  HIT %:        100  MISS %:          0   MPKI: 0
PSCL5 PREFETCH  REQUESTED:          0  ISSUED:          0  USEFUL:          0  USELESS:          0
PSCL5 USEFUL LOAD PREFETCHES:          0 PREFETCH ISSUED TO LOWER LEVEL:          0  ACCURACY: -nan
PSCL5 TIMELY PREFETCHES:          0 LATE PREFETCHES: 0 DROPPED PREFETCHES: 0
PSCL5 PREFETCHES SAME FILL-ORIGIN LEVEL: 0 DIFFERENT FILL-ORIGIN LEVEL: 0

Revised Interactions: positive negative neutral
PSCL5_interactions 0 0 0 -nan -nan -nan
PSCL4 TOTAL     ACCESS:       4487  HIT:       4487  MISS:          0  HIT %:        100  MISS %:          0   MPKI: 0
PSCL4 LOAD TRANSLATION ACCESS:       4485  HIT:       4485  MISS:          0  HIT %:        100  MISS %:          0   MPKI: 0
PSCL4 TRANSLATION FROM L1D PREFETCHER ACCESS:          2  HIT:          2  MISS:          0  HIT %:        100  MISS %:          0   MPKI: 0
PSCL4 PREFETCH  REQUESTED:          0  ISSUED:          0  USEFUL:          0  USELESS:          0
PSCL4 USEFUL LOAD PREFETCHES:          0 PREFETCH ISSUED TO LOWER LEVEL:          0  ACCURACY: -nan
PSCL4 TIMELY PREFETCHES:          0 LATE PREFETCHES: 0 DROPPED PREFETCHES: 0
PSCL4 PREFETCHES SAME FILL-ORIGIN LEVEL: 0 DIFFERENT FILL-ORIGIN LEVEL: 0

Revised Interactions: positive negative neutral
PSCL4_interactions 0 0 0 -nan -nan -nan
PSCL3 TOTAL     ACCESS:       4487  HIT:       4487  MISS:          0  HIT %:        100  MISS %:          0   MPKI: 0
PSCL3 LOAD TRANSLATION ACCESS:       4485  HIT:       4485  MISS:          0  HIT %:        100  MISS %:          0   MPKI: 0
PSCL3 TRANSLATION FROM L1D PREFETCHER ACCESS:          2  HIT:          2  MISS:          0  HIT %:        100  MISS %:          0   MPKI: 0
PSCL3 PREFETCH  REQUESTED:          0  ISSUED:          0  USEFUL:          0  USELESS:          0
PSCL3 USEFUL LOAD PREFETCHES:          0 PREFETCH ISSUED TO LOWER LEVEL:          0  ACCURACY: -nan
PSCL3 TIMELY PREFETCHES:          0 LATE PREFETCHES: 0 DROPPED PREFETCHES: 0
PSCL3 PREFETCHES SAME FILL-ORIGIN LEVEL: 0 DIFFERENT FILL-ORIGIN LEVEL: 0

Revised Interactions: positive negative neutral
PSCL3_interactions 0 0 0 -nan -nan -nan
PSCL2 TOTAL     ACCESS:       4487  HIT:       4474  MISS:         13  HIT %:    99.7103  MISS %:   0.289726   MPKI: 0.00026
PSCL2 LOAD TRANSLATION ACCESS:       4485  HIT:       4472  MISS:         13  HIT %:    99.7101  MISS %:   0.289855   MPKI: 0.00026
PSCL2 TRANSLATION FROM L1D PREFETCHER ACCESS:          2  HIT:          2  MISS:          0  HIT %:        100  MISS %:          0   MPKI: 0
PSCL2 PREFETCH  REQUESTED:          0  ISSUED:          0  USEFUL:          0  USELESS:          0
PSCL2 USEFUL LOAD PREFETCHES:          0 PREFETCH ISSUED TO LOWER LEVEL:          0  ACCURACY: -nan
PSCL2 TIMELY PREFETCHES:          0 LATE PREFETCHES: 0 DROPPED PREFETCHES: 0
PSCL2 PREFETCHES SAME FILL-ORIGIN LEVEL: 0 DIFFERENT FILL-ORIGIN LEVEL: 0

Revised Interactions: positive negative neutral
PSCL2_interactions 0 0 0 -nan -nan -nan
LLC TOTAL     ACCESS:   11052549  HIT:    6080163  MISS:    4972386  HIT %:    55.0114  MISS %:    44.9886   MPKI: 99.4477
LLC LOAD      ACCESS:    1775737  HIT:    1501521  MISS:     274216  HIT %:    84.5576  MISS %:    15.4424   MPKI: 5.48432
LLC RFO       ACCESS:     148812  HIT:        443  MISS:     148369  HIT %:   0.297691  MISS %:    99.7023   MPKI: 2.96738
LLC PREFETCH  ACCESS:    8933779  HIT:    4577160  MISS:    4356619  HIT %:    51.2343  MISS %:    48.7657   MPKI: 87.1324
LLC WRITEBACK ACCESS:     191507  HIT:       1034  MISS:     190473  HIT %:   0.539928  MISS %:    99.4601   MPKI: 3.80946
LLC LOAD TRANSLATION ACCESS:       2712  HIT:          5  MISS:       2707  HIT %:   0.184366  MISS %:    99.8156   MPKI: 0.05414
LLC TRANSLATION FROM L1D PREFETCHER ACCESS:          2  HIT:          0  MISS:          2  HIT %:          0  MISS %:        100   MPKI: 4e-05
LLC PREFETCH  REQUESTED:          0  ISSUED:          0  USEFUL:      77875  USELESS:     800918
LLC USEFUL LOAD PREFETCHES:      77875 PREFETCH ISSUED TO LOWER LEVEL:    4356628  ACCURACY: 1.78751
LLC TIMELY PREFETCHES:      77875 LATE PREFETCHES: 0 DROPPED PREFETCHES: 0
LLC PREFETCHES SAME FILL-ORIGIN LEVEL: 0 DIFFERENT FILL-ORIGIN LEVEL: 0
LLC AVERAGE MISS LATENCY: 139.531 cycles
LLC RQ	ACCESS:    1927263	FORWARD:          0	MERGED:          0	TO_CACHE:    1927263
LLC WQ	ACCESS:     191507	FORWARD:          0	MERGED:          0	TO_CACHE:     191507
LLC PQ	ACCESS:    8933791	FORWARD:          0	MERGED:          0	TO_CACHE:    8933791

Revised Interactions: positive negative neutral
LLC_interactions 517 865982 131116 0.0518236 86.8052 13.1429
LLC Dense regions hint to LLC: 0

RAW hits: 2007820
Loads Generated: 22575665
Loads sent to L1D: 20567845
Stores Generated: 3711165
Stores sent to L1D: 3711168
Major fault: 0 Minor fault: 9879
Allocated PAGES: 9879

stream: 
stream:times selected: 19789490
stream:pref_filled: 17159655
stream:pref_useful: 7942407
stream:pref_late: 1457230
stream:misses: 396188
stream:misses_by_poll: 0

CS: 
CS:times selected: 2424022
CS:pref_filled: 136373
CS:pref_useful: 104794
CS:pref_late: 3195
CS:misses: 292442
CS:misses_by_poll: 374

CPLX: 
CPLX:times selected: 17364557
CPLX:pref_filled: 3588312
CPLX:pref_useful: 2579447
CPLX:pref_late: 438702
CPLX:misses: 4453448
CPLX:misses_by_poll: 23100

NL_L1: 
NL:times selected: 150938
NL:pref_filled: 938
NL:pref_useful: 546
NL:pref_late: 0
NL:misses: 98560
NL:misses_by_poll: 0

total selections: 39729007
total_filled: 9776611
total_useful: 4206687
total_late: 1899127
total_polluted: 23474
total_misses_after_warmup: 4108812
conflicts: 20845
Degree Incremented Times: 199663
Degree Decremented Times: 0

L1 IP Table Write Accesses: 16191077
L1 IP Table Read Accesses: 16170232
L1 RST Write Accesses: 10130934
L1 RST Read Accesses: 20261868
L1 CSPT Write Accesses: 10130934
L1 CSPT Read Accesses: 35238005
L1 RR Filter Tag Write Accesses: 21616891
L1 RR Filter Tag Read Accesses: 1723209501
L1 IP Table Tag Write Accesses: 16322602
L1 IP Table Tag Read Accesses: 16322602
L1 RST Tag Write Accesses: 0
L1 RST Tag Read Accesses: 91099459
L1 RR Filter Write Accesses: 0
L1 RR Filter Read Accesses: 76526091
test: 949793
L2 IP Table Read Accesses: 23481757
L2 IP Table Write Accesses: 21498372
L2 IP Table Tag Read Accesses: 11740967
L2 IP Table Tag Write Accesses: 11740967

DRAM Statistics
 CHANNEL 0
 RQ ROW_BUFFER_HIT:    3132505  ROW_BUFFER_MISS:    1649359
 DBUS_CONGESTED:       3932
 WQ ROW_BUFFER_HIT:      37245  ROW_BUFFER_MISS:     153854  FULL:          0

 AVG_CONGESTED_CYCLE: 5
 All warmup complete: 2
Channel 0 Bank busy for read cycles: 0
Channel 0 Bank busy for write cycles: 0
Channel 0
Rank 0
0banks busy for read cycles: 831946
0banks busy for write cycles: 494
1banks busy for read cycles: 8277310
1banks busy for write cycles: 350106
2banks busy for read cycles: 11042072
2banks busy for write cycles: 259707
3banks busy for read cycles: 14267304
3banks busy for write cycles: 197019
4banks busy for read cycles: 17075909
4banks busy for write cycles: 189304
5banks busy for read cycles: 17499815
5banks busy for write cycles: 215581
6banks busy for read cycles: 14177504
6banks busy for write cycles: 254082
7banks busy for read cycles: 8878834
7banks busy for write cycles: 647167
8banks busy for read cycles: 3606439
8banks busy for write cycles: 8194431

CPU 0 Branch Prediction Accuracy: 97.6795% MPKI: 4.20592 Average ROB Occupancy at Mispredict: 43.1382
Branch types
NOT_BRANCH: 40937297 81.8746%
BRANCH_DIRECT_JUMP: 2039126 4.07825%
BRANCH_INDIRECT: 0 0%
BRANCH_CONDITIONAL: 7022760 14.0455%
BRANCH_DIRECT_CALL: 392 0.000784%
BRANCH_INDIRECT_CALL: 0 0%
BRANCH_RETURN: 392 0.000784%
BRANCH_OTHER: 0 0%

@sumon_overall_L1D   4206687   1931347   1931347   5569862   9776611  33222613  38163942
@Sumon_Early_by_class_L1D   3281666     51441    873580         0
@Sumon_Late_by_class_L1D   1249085      2829    403013         0

@Sumon_Early_by_cycle_L1D   2022575   1200862    638366    155308     78831     96457     10230      2886      1004       163         5         0
@Sumon_Late_by_cycle_L1D    317506    341345    502539    180813    311895       829
@Sumon_Early_stream_L1D   1670844    895915    482409    107438     56409     62374      4776      1059       363        75         4         0
@Sumon_Early_CS_L1D      3164      4220      6940      7046      6768     18786      3706       747        63         1         0         0
@Sumon_Early_CPLX_L1D    348567    300727    149017     40824     15654     15297      1748      1080       578        87         1         0
@Sumon_Late_stream_L1D    201047    248855    400437    148596    249496       654
@Sumon_Late_CS_L1D       353       384       476       631       983         2
@Sumon_Late_CPLX_L1D    116106     92106    101626     31586     61416       173
@sumon_overall_L2C     27774       212         0   8906993   8933569    172091    172094
@Sumon_Early_by_class_L2C     12575     10681      4518         0
@Sumon_Late_by_class_L2C         0       189         0         0

@Sumon_Early_by_cycle_L2C       270       390       661       688       712      4049      2276       761       353       137        16     17461
@Sumon_Late_by_cycle_L2C        23        44        33        50        62         0
@Sumon_Early_stream_L2C         0         0         0         0         0         0         0        23        39        39         2     12472
@Sumon_Early_CS_L2C       270       390       661       688       712      4049      2276       733       243        23         4       632
@Sumon_Early_CPLX_L2C         0         0         0         0         0         0         0         5        71        75        10      4357
@Sumon_Late_stream_L2C         0         0         0         0         0         0
@Sumon_Late_CS_L2C         0        44        33        50        62         0
@Sumon_Late_CPLX_L2C         0         0         0         0         0         0
DRAM PAGES: 1048576
Allocated PAGES: 9879
