
*** ChampSim Multicore Out-of-Order Simulator ***

Warmup Instructions: 50000000
Simulation Instructions: 50000000
Number of CPUs: 1
LLC sets: 2048
LLC ways: 16
Off-chip DRAM Size: 4096 MB Channels: 1 Width: 64-bit Data Rate: 6400 MT/s
CPU 0 runs ../../biswa/SPEC2017Traces/605.mcf_s-994B.champsimtrace.xz
.xz
CPU 0 Bimodal branch predictor
BTB has LRU replacement policy
ITLB has LRU replacement policy
DTLB has LRU replacement policy
STLB has LRU replacement policy
L1I has LRU replacement policy
IP Table Entries: 256
L1D has LRU replacement policy
IP_Table L2 entries: 256
Initialize DRRIP state for L2C
epoch: 1000
next table: 2195
cur table: 6974
epoch: 1000
next table: 1909
cur table: 2195
epoch: 1000
next table: 1801
cur table: 1909
epoch: 1000
next table: 1747
cur table: 1801
epoch: 1000
next table: 1740
cur table: 1747
epoch: 1000
next table: 1749
cur table: 1740
epoch: 1000
next table: 1730
cur table: 1749
epoch: 1000
next table: 1739
cur table: 1730
epoch: 1000
next table: 1728
cur table: 1739
epoch: 1000
next table: 1683
cur table: 1728
epoch: 1000
next table: 1707
cur table: 1683
epoch: 1000
next table: 1701
cur table: 1707
epoch: 1000
next table: 1714
cur table: 1701
epoch: 1000
next table: 1693
cur table: 1714
epoch: 1000
next table: 1677
cur table: 1693
epoch: 1000
next table: 1716
cur table: 1677
epoch: 1000
next table: 1722
cur table: 1716
epoch: 1000
next table: 1710
cur table: 1722
epoch: 1000
next table: 1737
cur table: 1710
epoch: 1000
next table: 1847
cur table: 1737
epoch: 1000
next table: 1869
cur table: 1847
epoch: 1000
next table: 1813
cur table: 1869
epoch: 1000
next table: 1754
cur table: 1813
epoch: 1000
next table: 1686
cur table: 1754
epoch: 1000
next table: 2038
cur table: 1686
epoch: 1000
next table: 2827
cur table: 2038
epoch: 1000
next table: 2889
cur table: 2827
epoch: 1000
next table: 2082
cur table: 2889
epoch: 1000
next table: 3010
cur table: 2082
epoch: 1000
next table: 5337
cur table: 14354
epoch: 1000
next table: 2422
cur table: 3010
epoch: 1000
next table: 2530
cur table: 2422
epoch: 1000
next table: 2635
cur table: 2530
epoch: 1000
next table: 1661
cur table: 2635
epoch: 1000
next table: 1679
cur table: 1661
epoch: 1000
next table: 2291
cur table: 5337
epoch: 1000
next table: 2960
cur table: 1679
epoch: 1000
next table: 1854
cur table: 2960
epoch: 1000
next table: 1607
cur table: 1854
epoch: 1000
next table: 1613
cur table: 1607
epoch: 1000
next table: 2596
cur table: 2291
epoch: 1000
next table: 1603
cur table: 1613
epoch: 1000
next table: 1618
cur table: 1603
epoch: 1000
next table: 1638
cur table: 1618
epoch: 1000
next table: 1627
cur table: 1638
epoch: 1000
next table: 1647
cur table: 1627
epoch: 1000
next table: 3665
cur table: 2596
epoch: 1000
next table: 1637
cur table: 1647
epoch: 1000
next table: 1676
cur table: 1637
epoch: 1000
next table: 1667
cur table: 1676
epoch: 1000
next table: 1665
cur table: 1667
epoch: 1000
next table: 3402
cur table: 3665
epoch: 1000
next table: 1705
cur table: 1665
epoch: 1000
next table: 1657
cur table: 1705
epoch: 1000
next table: 1714
cur table: 1657
epoch: 1000
next table: 1816
cur table: 1714
epoch: 1000
next table: 1791
cur table: 1816
epoch: 1000
next table: 1728
cur table: 1791
epoch: 1000
next table: 1678
cur table: 1728
epoch: 1000
next table: 2810
cur table: 1678
epoch: 1000
next table: 2535
cur table: 2810
epoch: 1000
next table: 3023
cur table: 2535
epoch: 1000
next table: 5361
cur table: 3402
epoch: 1000
next table: 3870
cur table: 3023
epoch: 1000
next table: 2790
cur table: 3870
epoch: 1000
next table: 1259
cur table: 5361
epoch: 1000
next table: 2979
cur table: 2790
epoch: 1000
next table: 1722
cur table: 2979
epoch: 1000
next table: 2254
cur table: 1722
epoch: 1000
next table: 2169
cur table: 2254
epoch: 1000
next table: 1917
cur table: 1259
epoch: 1000
next table: 1607
cur table: 2169
epoch: 1000
next table: 1611
cur table: 1607
epoch: 1000
next table: 1618
cur table: 1611
epoch: 1000
next table: 1633
cur table: 1618
epoch: 1000
next table: 1657
cur table: 1633
epoch: 1000
next table: 1789
cur table: 1657
epoch: 1000
next table: 3866
cur table: 1789
epoch: 1000
next table: 4426
cur table: 1917
epoch: 1000
next table: 2522
cur table: 3866
epoch: 1000
next table: 2024
cur table: 2522
epoch: 1000
next table: 1747
cur table: 2024
epoch: 1000
next table: 1909
cur table: 4426
epoch: 1000
next table: 2646
cur table: 1747
epoch: 1000
next table: 2283
cur table: 2646
epoch: 1000
next table: 1330
cur table: 1909
epoch: 1000
next table: 1690
cur table: 2283
epoch: 1000
next table: 1635
cur table: 1330
epoch: 1000
next table: 1707
cur table: 1690
epoch: 1000
next table: 1610
cur table: 1635
epoch: 1000
next table: 1704
cur table: 1707
epoch: 1000
next table: 1614
cur table: 1610
epoch: 1000
next table: 1733
cur table: 1704
epoch: 1000
next table: 1612
cur table: 1614
epoch: 1000
next table: 1725
cur table: 1733
epoch: 1000
next table: 1600
cur table: 1612
epoch: 1000
next table: 1747
cur table: 1725
epoch: 1000
next table: 1586
cur table: 1600
epoch: 1000
next table: 1728
cur table: 1747
epoch: 1000
next table: 1607
cur table: 1586
epoch: 1000
next table: 1721
cur table: 1728
epoch: 1000
next table: 1766
cur table: 1721
epoch: 1000
next table: 1609
cur table: 1607
epoch: 1000
next table: 1744
cur table: 1766
epoch: 1000
next table: 1595
cur table: 1609
epoch: 1000
next table: 1737
cur table: 1744
epoch: 1000
next table: 1585
cur table: 1595
epoch: 1000
next table: 1723
cur table: 1737
epoch: 1000
next table: 1596
cur table: 1585
epoch: 1000
next table: 1714
cur table: 1723
epoch: 1000
next table: 1565
cur table: 1596
epoch: 1000
next table: 1704
cur table: 1714
epoch: 1000
next table: 1623
cur table: 1565
epoch: 1000
next table: 1759
cur table: 1704
epoch: 1000
next table: 1757
cur table: 1759
epoch: 1000
next table: 1625
cur table: 1623
epoch: 1000
next table: 1722
cur table: 1757
epoch: 1000
next table: 1616
cur table: 1625
epoch: 1000
next table: 1755
cur table: 1722
epoch: 1000
next table: 1627
cur table: 1616
epoch: 1000
next table: 1722
cur table: 1755
epoch: 1000
next table: 1632
cur table: 1627
epoch: 1000
next table: 1740
cur table: 1722
epoch: 1000
next table: 1634
cur table: 1632
epoch: 1000
next table: 1734
cur table: 1740
epoch: 1000
next table: 1757
cur table: 1734
epoch: 1000
next table: 1628
cur table: 1634
epoch: 1000
next table: 1718
cur table: 1757
epoch: 1000
next table: 1634
cur table: 1628
epoch: 1000
next table: 1720
cur table: 1718
epoch: 1000
next table: 1643
cur table: 1634
epoch: 1000
next table: 1710
cur table: 1720
epoch: 1000
next table: 1637
cur table: 1643
epoch: 1000
next table: 1739
cur table: 1710
epoch: 1000
next table: 1643
cur table: 1637
epoch: 1000
next table: 1707
cur table: 1739
epoch: 1000
next table: 1716
cur table: 1707
epoch: 1000
next table: 1661
cur table: 1643
epoch: 1000
next table: 1731
cur table: 1716
epoch: 1000
next table: 1678
cur table: 1661
epoch: 1000
next table: 1747
cur table: 1731
epoch: 1000
next table: 1668
cur table: 1678
epoch: 1000
next table: 1738
cur table: 1747
epoch: 1000
next table: 1747
cur table: 1738
epoch: 1000
next table: 1671
cur table: 1668
epoch: 1000
next table: 1746
cur table: 1747
epoch: 1000
next table: 1683
cur table: 1671
epoch: 1000
next table: 1760
cur table: 1746
epoch: 1000
next table: 1687
cur table: 1683
epoch: 1000
next table: 1736
cur table: 1760
epoch: 1000
next table: 1683
cur table: 1687
epoch: 1000
next table: 1724
cur table: 1736
epoch: 1000
next table: 1758
cur table: 1724
epoch: 1000
next table: 1781
cur table: 1683
epoch: 1000
next table: 1684
cur table: 1758
epoch: 1000
next table: 1807
cur table: 1781
epoch: 1000
next table: 1723
cur table: 1684
epoch: 1000
next table: 1747
cur table: 1723
epoch: 1000
next table: 1830
cur table: 1807
epoch: 1000
next table: 1747
cur table: 1747
epoch: 1000
next table: 1758
cur table: 1747
epoch: 1000
next table: 1933
cur table: 1830
epoch: 1000
next table: 1735
cur table: 1758
epoch: 1000
next table: 1724
cur table: 1735
epoch: 1000
next table: 1947
cur table: 1933
epoch: 1000
next table: 1766
cur table: 1724
epoch: 1000
next table: 1939
cur table: 1947
epoch: 1000
next table: 1724
cur table: 1766
epoch: 1000
next table: 1692
cur table: 1724
epoch: 1000
next table: 2114
cur table: 1692
epoch: 1000
next table: 2267
cur table: 2114
epoch: 1000
next table: 2765
cur table: 1939
epoch: 1000
next table: 1928
cur table: 2267
epoch: 1000
next table: 1827
cur table: 1928
epoch: 1000
next table: 1797
cur table: 1827
epoch: 1000
next table: 1800
cur table: 1797
epoch: 1000
next table: 3505
cur table: 2765
epoch: 1000
next table: 1765
cur table: 1800
epoch: 1000
next table: 1738
cur table: 1765
epoch: 1000
next table: 1742
cur table: 1738
epoch: 1000
next table: 1769
cur table: 1742
epoch: 1000
next table: 1727
cur table: 1769
epoch: 1000
next table: 3144
cur table: 3505
epoch: 1000
next table: 1744
cur table: 1727
epoch: 1000
next table: 1730
cur table: 1744
epoch: 1000
next table: 1764
cur table: 1730
epoch: 1000
next table: 1760
cur table: 1764
epoch: 1000
next table: 1725
cur table: 1760
epoch: 1000
next table: 3789
cur table: 3144
epoch: 1000
next table: 1741
cur table: 1725
epoch: 1000
next table: 1766
cur table: 1741
epoch: 1000
next table: 1732
cur table: 1766
epoch: 1000
next table: 1768
cur table: 1732
epoch: 1000
next table: 1745
cur table: 1768
epoch: 1000
next table: 1744
cur table: 1745
epoch: 1000
next table: 1763
cur table: 1744
epoch: 1000
next table: 4677
cur table: 3789
epoch: 1000
next table: 1737
cur table: 1763
epoch: 1000
next table: 1752
cur table: 1737
epoch: 1000
next table: 1750
cur table: 1752
epoch: 1000
next table: 1761
cur table: 1750
epoch: 1000
next table: 1753
cur table: 1761
epoch: 1000
next table: 1737
cur table: 1753
epoch: 1000
next table: 1748
cur table: 1737
epoch: 1000
next table: 1755
cur table: 1748
epoch: 1000
next table: 1698
cur table: 1755
epoch: 1000
next table: 1874
cur table: 1698
epoch: 1000
next table: 6356
cur table: 4677
epoch: 1000
next table: 2040
cur table: 1874
epoch: 1000
next table: 1924
cur table: 2040
epoch: 1000
next table: 1770
cur table: 1924
epoch: 1000
next table: 1715
cur table: 1770
epoch: 1000
next table: 1691
cur table: 1715
epoch: 1000
next table: 1655
cur table: 1691
epoch: 1000
next table: 1691
cur table: 1655
epoch: 1000
next table: 1684
cur table: 1691
epoch: 1000
next table: 1705
cur table: 1684
epoch: 1000
next table: 5973
cur table: 6356
epoch: 1000
next table: 1682
cur table: 1705
epoch: 1000
next table: 1902
cur table: 1682
epoch: 1000
next table: 2582
cur table: 1902
epoch: 1000
next table: 1941
cur table: 2582
epoch: 1000
next table: 1749
cur table: 1941
epoch: 1000
next table: 3226
cur table: 5973
epoch: 1000
next table: 3285
cur table: 1749
epoch: 1000
next table: 1400
cur table: 3226
epoch: 1000
next table: 3225
cur table: 3285
epoch: 1000
next table: 2149
cur table: 3225
epoch: 1000
next table: 1934
cur table: 2149
epoch: 1000
next table: 1637
cur table: 1400
epoch: 1000
next table: 2322
cur table: 1934
epoch: 1000
next table: 3048
cur table: 2322
epoch: 1000
next table: 1563
cur table: 1637
epoch: 1000
next table: 2821
cur table: 3048
epoch: 1000
next table: 1195
cur table: 1563
epoch: 1000
next table: 2214
cur table: 2821
epoch: 1000
next table: 1589
cur table: 2214
epoch: 1000
next table: 1591
cur table: 1589
epoch: 1000
next table: 2289
cur table: 1195
epoch: 1000
next table: 1633
cur table: 1591
epoch: 1000
next table: 1633
cur table: 1633
epoch: 1000
next table: 1634
cur table: 1633
epoch: 1000
next table: 2587
cur table: 2289
epoch: 1000
next table: 1655
cur table: 1634
epoch: 1000
next table: 1799
cur table: 1655
epoch: 1000
next table: 2138
cur table: 1799
epoch: 1000
next table: 2469
cur table: 2138
epoch: 1000
next table: 2737
cur table: 2587
epoch: 1000
next table: 3551
cur table: 2469
epoch: 1000
next table: 1033
cur table: 2737
epoch: 1000
next table: 2149
cur table: 3551
epoch: 1000
next table: 2880
cur table: 2149
epoch: 1000
next table: 1427
cur table: 1033
epoch: 1000
next table: 2791
cur table: 2880
epoch: 1000
next table: 1500
cur table: 2791
epoch: 1000
next table: 2117
cur table: 1500
epoch: 1000
next table: 1757
cur table: 1427
epoch: 1000
next table: 1814
cur table: 2117
epoch: 1000
next table: 1727
cur table: 1757
epoch: 1000
next table: 1675
cur table: 1814
epoch: 1000
next table: 1686
cur table: 1675
epoch: 1000
next table: 1712
cur table: 1686
epoch: 1000
next table: 2118
cur table: 1727
epoch: 1000
next table: 1709
cur table: 1712
epoch: 1000
next table: 1684
cur table: 1709
epoch: 1000
next table: 1716
cur table: 1684
epoch: 1000
next table: 2942
cur table: 2118
epoch: 1000
next table: 1709
cur table: 1716
epoch: 1000
next table: 1722
cur table: 1709
epoch: 1000
next table: 1696
cur table: 1722
epoch: 1000
next table: 1704
cur table: 1696
epoch: 1000
next table: 1712
cur table: 1704
epoch: 1000
next table: 1682
cur table: 1712
epoch: 1000
next table: 4016
cur table: 2942
epoch: 1000
next table: 1688
cur table: 1682
epoch: 1000
next table: 1699
cur table: 1688
epoch: 1000
next table: 1705
cur table: 1699
epoch: 1000
next table: 1700
cur table: 1705
epoch: 1000
next table: 1726
cur table: 1700
epoch: 1000
next table: 1736
cur table: 1726
epoch: 1000
next table: 1689
cur table: 1736
epoch: 1000
next table: 1681
cur table: 1689
epoch: 1000
next table: 5436
cur table: 4016
epoch: 1000
next table: 1710
cur table: 1681
epoch: 1000
next table: 1689
cur table: 1710
epoch: 1000
next table: 2141
cur table: 1689
epoch: 1000
next table: 2131
cur table: 2141
epoch: 1000
next table: 1942
cur table: 2131
epoch: 1000
next table: 1799
cur table: 1942
epoch: 1000
next table: 1755
cur table: 1799
epoch: 1000
next table: 1699
cur table: 1755
epoch: 1000
next table: 1696
cur table: 1699
epoch: 1000
next table: 5635
cur table: 5436
epoch: 1000
next table: 1694
cur table: 1696
epoch: 1000
next table: 1665
cur table: 1694
epoch: 1000
next table: 1659
cur table: 1665
epoch: 1000
next table: 1999
cur table: 1659
epoch: 1000
next table: 2399
cur table: 1999
epoch: 1000
next table: 3822
cur table: 5635
epoch: 1000
next table: 1902
cur table: 2399
epoch: 1000
next table: 1857
cur table: 1902
epoch: 1000
next table: 3410
cur table: 1857
epoch: 1000
next table: 1773
cur table: 3822
epoch: 1000
next table: 2806
cur table: 3410
epoch: 1000
next table: 1893
cur table: 2806
epoch: 1000
next table: 2021
cur table: 1893
epoch: 1000
next table: 2033
cur table: 1773
epoch: 1000
next table: 3685
cur table: 2021
epoch: 1000
next table: 3051
cur table: 3685
epoch: 1000
next table: 1085
cur table: 2033
epoch: 1000
next table: 1898
cur table: 3051
epoch: 1000
next table: 1579
cur table: 1898
epoch: 1000
next table: 1850
cur table: 1085
epoch: 1000
next table: 1625
cur table: 1579
epoch: 1000
next table: 1671
cur table: 1625
epoch: 1000
next table: 2319
cur table: 1850
epoch: 1000
next table: 1642
cur table: 1671
epoch: 1000
next table: 1659
cur table: 1642
epoch: 1000
next table: 1636
cur table: 1659
epoch: 1000
next table: 2257
cur table: 2319
epoch: 1000
next table: 1626
cur table: 1636
epoch: 1000
next table: 1971
cur table: 1626
epoch: 1000
next table: 2125
cur table: 1971
epoch: 1000
next table: 2512
cur table: 2257
epoch: 1000
next table: 4388
cur table: 2125
epoch: 1000
next table: 2096
cur table: 4388
epoch: 1000
next table: 1219
cur table: 2512
epoch: 1000
next table: 2716
cur table: 2096
epoch: 1000
next table: 2126
cur table: 2716
epoch: 1000
next table: 1652
cur table: 2126
epoch: 1000
next table: 1635
cur table: 1652
epoch: 1000
next table: 2387
cur table: 1219
epoch: 1000
next table: 3067
cur table: 1635
epoch: 1000
next table: 2297
cur table: 3067
epoch: 1000
next table: 1189
cur table: 2387
epoch: 1000
next table: 1537
cur table: 2297
epoch: 1000
next table: 1644
cur table: 1537
epoch: 1000
next table: 1969
cur table: 1189
epoch: 1000
next table: 1653
cur table: 1644
epoch: 1000
next table: 1663
cur table: 1653
epoch: 1000
next table: 1676
cur table: 1663
epoch: 1000
next table: 1631
cur table: 1676
epoch: 1000
next table: 3361
cur table: 1969
epoch: 1000
next table: 1670
cur table: 1631
epoch: 1000
next table: 1697
cur table: 1670
epoch: 1000
next table: 1804
cur table: 1697
epoch: 1000
next table: 2024
cur table: 1804
epoch: 1000
next table: 1857
cur table: 2024
epoch: 1000
next table: 4028
cur table: 1857
epoch: 1000
next table: 2280
cur table: 4028
epoch: 1000
next table: 3032
cur table: 2280
epoch: 1000
next table: 2453
cur table: 3032
epoch: 1000
next table: 2028
cur table: 2453
epoch: 1000
next table: 4358
cur table: 3361
epoch: 1000
next table: 1561
cur table: 2028
epoch: 1000
next table: 1547
cur table: 1561
epoch: 1000
next table: 2173
cur table: 1547
epoch: 1000
next table: 3173
cur table: 2173
epoch: 1000
next table: 2450
cur table: 4358
epoch: 1000
next table: 1598
cur table: 3173
epoch: 1000
next table: 1622
cur table: 1598
epoch: 1000
next table: 2041
cur table: 2450
epoch: 1000
next table: 1646
cur table: 1622
epoch: 1000
next table: 1657
cur table: 1646
epoch: 1000
next table: 1651
cur table: 1657
epoch: 1000
next table: 1640
cur table: 1651
epoch: 1000
next table: 1660
cur table: 1640
epoch: 1000
next table: 1629
cur table: 1660
epoch: 1000
next table: 1649
cur table: 1629
epoch: 1000
next table: 1653
cur table: 1649
epoch: 1000
next table: 1636
cur table: 1653
epoch: 1000
next table: 1626
cur table: 1636
epoch: 1000
next table: 1614
cur table: 1626
epoch: 1000
next table: 1689
cur table: 1614
epoch: 1000
next table: 7065
cur table: 2041
epoch: 1000
next table: 1758
cur table: 1689
epoch: 1000
next table: 2111
cur table: 1758
epoch: 1000
next table: 3886
cur table: 2111
epoch: 1000
next table: 3132
cur table: 3886
epoch: 1000
next table: 3363
cur table: 3132
Heartbeat CPU 0 instructions: 10000000 cycles: 3241608 heartbeat IPC: 3.08489 cumulative IPC: 3.08489 (Simulation time: 0 hr 6 min 19 sec) 
epoch: 1000
next table: 3099
cur table: 3363
epoch: 1000
next table: 1744
cur table: 3099
epoch: 1000
next table: 1630
cur table: 1744
epoch: 1000
next table: 3589
cur table: 7065
epoch: 1000
next table: 1622
cur table: 1630
epoch: 1000
next table: 1583
cur table: 1622
epoch: 1000
next table: 1568
cur table: 1583
epoch: 1000
next table: 2267
cur table: 3589
epoch: 1000
next table: 1581
cur table: 1568
epoch: 1000
next table: 1650
cur table: 1581
epoch: 1000
next table: 2144
cur table: 1650
epoch: 1000
next table: 2524
cur table: 2267
epoch: 1000
next table: 3746
cur table: 2144
epoch: 1000
next table: 3194
cur table: 3746
epoch: 1000
next table: 2024
cur table: 3194
epoch: 1000
next table: 1664
cur table: 2024
epoch: 1000
next table: 1949
cur table: 1664
epoch: 1000
next table: 2104
cur table: 2524
epoch: 1000
next table: 2643
cur table: 1949
epoch: 1000
next table: 1811
cur table: 2643
epoch: 1000
next table: 1646
cur table: 2104
epoch: 1000
next table: 1720
cur table: 1811
epoch: 1000
next table: 1744
cur table: 1646
epoch: 1000
next table: 1763
cur table: 1720
epoch: 1000
next table: 1768
cur table: 1763
epoch: 1000
next table: 1879
cur table: 1744
epoch: 1000
next table: 1736
cur table: 1768
epoch: 1000
next table: 1780
cur table: 1736
epoch: 1000
next table: 1942
cur table: 1879
epoch: 1000
next table: 1746
cur table: 1780
epoch: 1000
next table: 1961
cur table: 1942
epoch: 1000
next table: 1749
cur table: 1746
epoch: 1000
next table: 1774
cur table: 1749
epoch: 1000
next table: 1960
cur table: 1961
epoch: 1000
next table: 1781
cur table: 1774
epoch: 1000
next table: 1725
cur table: 1781
epoch: 1000
next table: 1959
cur table: 1960
epoch: 1000
next table: 1766
cur table: 1725
epoch: 1000
next table: 1775
cur table: 1766
epoch: 1000
next table: 2010
cur table: 1959
epoch: 1000
next table: 1770
cur table: 1775
epoch: 1000
next table: 1805
cur table: 1770
epoch: 1000
next table: 2011
cur table: 2010
epoch: 1000
next table: 1811
cur table: 1805
epoch: 1000
next table: 2008
cur table: 2011
epoch: 1000
next table: 1756
cur table: 1811
epoch: 1000
next table: 1804
cur table: 1756
epoch: 1000
next table: 1993
cur table: 2008
epoch: 1000
next table: 1746
cur table: 1804
epoch: 1000
next table: 1766
cur table: 1746
epoch: 1000
next table: 1982
cur table: 1993
epoch: 1000
next table: 1753
cur table: 1766
epoch: 1000
next table: 1764
cur table: 1753
epoch: 1000
next table: 1983
cur table: 1982
epoch: 1000
next table: 1837
cur table: 1764
epoch: 1000
next table: 1757
cur table: 1837
epoch: 1000
next table: 1972
cur table: 1983
epoch: 1000
next table: 1742
cur table: 1757
epoch: 1000
next table: 1762
cur table: 1742
epoch: 1000
next table: 1968
cur table: 1972
epoch: 1000
next table: 1779
cur table: 1762
epoch: 1000
next table: 1955
cur table: 1968
epoch: 1000
next table: 1758
cur table: 1779
epoch: 1000
next table: 1799
cur table: 1758
epoch: 1000
next table: 1974
cur table: 1955
epoch: 1000
next table: 1785
cur table: 1799
epoch: 1000
next table: 1769
cur table: 1785
epoch: 1000
next table: 1967
cur table: 1974
epoch: 1000
next table: 1772
cur table: 1769
epoch: 1000
next table: 1778
cur table: 1772
epoch: 1000
next table: 1955
cur table: 1967
epoch: 1000
next table: 1810
cur table: 1778
epoch: 1000
next table: 1752
cur table: 1810
epoch: 1000
next table: 1955
cur table: 1955
epoch: 1000
next table: 1766
cur table: 1752
epoch: 1000
next table: 1950
cur table: 1955
epoch: 1000
next table: 1802
cur table: 1766
epoch: 1000
next table: 1748
cur table: 1802
epoch: 1000
next table: 1954
cur table: 1950
epoch: 1000
next table: 1773
cur table: 1748
epoch: 1000
next table: 1745
cur table: 1773
epoch: 1000
next table: 1952
cur table: 1954
epoch: 1000
next table: 1775
cur table: 1745
epoch: 1000
next table: 1791
cur table: 1775
epoch: 1000
next table: 1962
cur table: 1952
epoch: 1000
next table: 1735
cur table: 1791
epoch: 1000
next table: 1785
cur table: 1735
epoch: 1000
next table: 1962
cur table: 1962
epoch: 1000
next table: 1768
cur table: 1785
epoch: 1000
next table: 1972
cur table: 1962
epoch: 1000
next table: 1739
cur table: 1768
epoch: 1000
next table: 1790
cur table: 1739
epoch: 1000
next table: 1982
cur table: 1972
epoch: 1000
next table: 1761
cur table: 1790
epoch: 1000
next table: 1766
cur table: 1761
epoch: 1000
next table: 1990
cur table: 1982
epoch: 1000
next table: 1787
cur table: 1766
epoch: 1000
next table: 1780
cur table: 1787
epoch: 1000
next table: 1755
cur table: 1780
epoch: 1000
next table: 2344
cur table: 1990
epoch: 1000
next table: 1810
cur table: 1755
epoch: 1000
next table: 1741
cur table: 1810
epoch: 1000
next table: 2364
cur table: 2344
epoch: 1000
next table: 1757
cur table: 1741
epoch: 1000
next table: 1755
cur table: 1757
epoch: 1000
next table: 1748
cur table: 1755
epoch: 1000
next table: 2342
cur table: 2364
epoch: 1000
next table: 1773
cur table: 1748
epoch: 1000
next table: 1764
cur table: 1773
epoch: 1000
next table: 2348
cur table: 2342
epoch: 1000
next table: 1774
cur table: 1764
epoch: 1000
next table: 1791
cur table: 1774
epoch: 1000
next table: 1756
cur table: 1791
epoch: 1000
next table: 2332
cur table: 2348
epoch: 1000
next table: 1748
cur table: 1756
epoch: 1000
next table: 1788
cur table: 1748
epoch: 1000
next table: 2451
cur table: 2332
epoch: 1000
next table: 1777
cur table: 1788
epoch: 1000
next table: 1806
cur table: 1777
epoch: 1000
next table: 1779
cur table: 1806
epoch: 1000
next table: 1773
cur table: 1779
epoch: 1000
next table: 1810
cur table: 1773
epoch: 1000
next table: 3587
cur table: 2451
epoch: 1000
next table: 1813
cur table: 1810
epoch: 1000
next table: 1756
cur table: 1813
epoch: 1000
next table: 1797
cur table: 1756
epoch: 1000
next table: 1770
cur table: 1797
epoch: 1000
next table: 3047
cur table: 3587
epoch: 1000
next table: 1809
cur table: 1770
epoch: 1000
next table: 1755
cur table: 1809
epoch: 1000
next table: 1774
cur table: 1755
epoch: 1000
next table: 2711
cur table: 3047
epoch: 1000
next table: 1757
cur table: 1774
epoch: 1000
next table: 1760
cur table: 1757
epoch: 1000
next table: 1753
cur table: 1760
epoch: 1000
next table: 2548
cur table: 2711
epoch: 1000
next table: 1725
cur table: 1753
epoch: 1000
next table: 1778
cur table: 1725
epoch: 1000
next table: 2056
cur table: 1778
epoch: 1000
next table: 1958
cur table: 2056
epoch: 1000
next table: 1846
cur table: 1958
epoch: 1000
next table: 1787
cur table: 1846
epoch: 1000
next table: 4122
cur table: 2548
epoch: 1000
next table: 1782
cur table: 1787
epoch: 1000
next table: 1764
cur table: 1782
epoch: 1000
next table: 1762
cur table: 1764
epoch: 1000
next table: 2650
cur table: 4122
epoch: 1000
next table: 1783
cur table: 1762
epoch: 1000
next table: 1738
cur table: 1783
epoch: 1000
next table: 2059
cur table: 2650
epoch: 1000
next table: 1758
cur table: 1738
epoch: 1000
next table: 1770
cur table: 1758
epoch: 1000
next table: 1955
cur table: 2059
epoch: 1000
next table: 1736
cur table: 1770
epoch: 1000
next table: 1707
cur table: 1736
epoch: 1000
next table: 2034
cur table: 1955
epoch: 1000
next table: 1757
cur table: 1707
epoch: 1000
next table: 1704
cur table: 1757
epoch: 1000
next table: 2042
cur table: 2034
epoch: 1000
next table: 1756
cur table: 1704
epoch: 1000
next table: 1754
cur table: 1756
epoch: 1000
next table: 2110
cur table: 2042
epoch: 1000
next table: 1775
cur table: 1754
epoch: 1000
next table: 1752
cur table: 1775
epoch: 1000
next table: 2054
cur table: 2110
epoch: 1000
next table: 1727
cur table: 1752
epoch: 1000
next table: 1748
cur table: 1727
epoch: 1000
next table: 2014
cur table: 2054
epoch: 1000
next table: 1746
cur table: 1748
epoch: 1000
next table: 1732
cur table: 1746
epoch: 1000
next table: 2033
cur table: 2014
epoch: 1000
next table: 1768
cur table: 1732
epoch: 1000
next table: 1763
cur table: 1768
epoch: 1000
next table: 1994
cur table: 2033
epoch: 1000
next table: 1747
cur table: 1763
epoch: 1000
next table: 1979
cur table: 1994
epoch: 1000
next table: 1769
cur table: 1747
epoch: 1000
next table: 1733
cur table: 1769
epoch: 1000
next table: 1947
cur table: 1979
epoch: 1000
next table: 1740
cur table: 1733
epoch: 1000
next table: 1744
cur table: 1740
epoch: 1000
next table: 1915
cur table: 1947
epoch: 1000
next table: 1749
cur table: 1744
epoch: 1000
next table: 1750
cur table: 1749
epoch: 1000
next table: 1942
cur table: 1915
epoch: 1000
next table: 1761
cur table: 1750
epoch: 1000
next table: 1727
cur table: 1761
epoch: 1000
next table: 1927
cur table: 1942
epoch: 1000
next table: 1740
cur table: 1727
epoch: 1000
next table: 1955
cur table: 1927
epoch: 1000
next table: 1728
cur table: 1740
epoch: 1000
next table: 1773
cur table: 1728
epoch: 1000
next table: 1986
cur table: 1955
epoch: 1000
next table: 1737
cur table: 1773
epoch: 1000
next table: 1723
cur table: 1737
epoch: 1000
next table: 1917
cur table: 1986
epoch: 1000
next table: 1734
cur table: 1723
epoch: 1000
next table: 1680
cur table: 1734
epoch: 1000
next table: 1915
cur table: 1917
epoch: 1000
next table: 2080
cur table: 1680
epoch: 1000
next table: 1782
cur table: 1915
epoch: 1000
next table: 2055
cur table: 2080
epoch: 1000
next table: 1881
cur table: 2055
epoch: 1000
next table: 1807
cur table: 1782
epoch: 1000
next table: 1817
cur table: 1881
epoch: 1000
next table: 1875
cur table: 1807
epoch: 1000
next table: 1724
cur table: 1817
epoch: 1000
next table: 1720
cur table: 1724
epoch: 1000
next table: 1898
cur table: 1875
epoch: 1000
next table: 1734
cur table: 1720
epoch: 1000
next table: 1705
cur table: 1734
epoch: 1000
next table: 1838
cur table: 1898
epoch: 1000
next table: 1707
cur table: 1705
epoch: 1000
next table: 1874
cur table: 1838
epoch: 1000
next table: 1697
cur table: 1707
epoch: 1000
next table: 1699
cur table: 1697
epoch: 1000
next table: 1832
cur table: 1874
epoch: 1000
next table: 1697
cur table: 1699
epoch: 1000
next table: 1718
cur table: 1697
epoch: 1000
next table: 1851
cur table: 1832
epoch: 1000
next table: 1723
cur table: 1718
epoch: 1000
next table: 1810
cur table: 1851
epoch: 1000
next table: 1675
cur table: 1723
epoch: 1000
next table: 1683
cur table: 1675
epoch: 1000
next table: 1764
cur table: 1810
epoch: 1000
next table: 1737
cur table: 1683
epoch: 1000
next table: 1796
cur table: 1764
epoch: 1000
next table: 1699
cur table: 1737
epoch: 1000
next table: 1699
cur table: 1699
epoch: 1000
next table: 1777
cur table: 1796
epoch: 1000
next table: 1736
cur table: 1699
epoch: 1000
next table: 1788
cur table: 1777
epoch: 1000
next table: 1691
cur table: 1736
epoch: 1000
next table: 1731
cur table: 1788
epoch: 1000
next table: 1654
cur table: 1691
epoch: 1000
next table: 2007
cur table: 1654
epoch: 1000
next table: 1897
cur table: 1731
epoch: 1000
next table: 2000
cur table: 2007
epoch: 1000
next table: 1786
cur table: 2000
epoch: 1000
next table: 2034
cur table: 1897
epoch: 1000
next table: 1788
cur table: 1786
epoch: 1000
next table: 1703
cur table: 1788
epoch: 1000
next table: 2148
cur table: 2034
epoch: 1000
next table: 1663
cur table: 1703
epoch: 1000
next table: 1688
cur table: 1663
epoch: 1000
next table: 1661
cur table: 1688
epoch: 1000
next table: 2174
cur table: 2148
epoch: 1000
next table: 1616
cur table: 1661
epoch: 1000
next table: 2190
cur table: 1616
epoch: 1000
next table: 2308
cur table: 2174
epoch: 1000
next table: 2151
cur table: 2190
epoch: 1000
next table: 1963
cur table: 2151
epoch: 1000
next table: 1833
cur table: 2308
epoch: 1000
next table: 4056
cur table: 1963
epoch: 1000
next table: 3275
cur table: 4056
epoch: 1000
next table: 1105
cur table: 1833
epoch: 1000
next table: 2337
cur table: 3275
epoch: 1000
next table: 2117
cur table: 2337
epoch: 1000
next table: 1522
cur table: 1105
epoch: 1000
next table: 3045
cur table: 2117
epoch: 1000
next table: 1630
cur table: 3045
epoch: 1000
next table: 1735
cur table: 1522
epoch: 1000
next table: 1666
cur table: 1630
epoch: 1000
next table: 1663
cur table: 1666
epoch: 1000
next table: 1671
cur table: 1663
epoch: 1000
next table: 2486
cur table: 1735
epoch: 1000
next table: 1615
cur table: 1671
epoch: 1000
next table: 1855
cur table: 1615
epoch: 1000
next table: 1940
cur table: 2486
epoch: 1000
next table: 2980
cur table: 1855
epoch: 1000
next table: 1928
cur table: 2980
epoch: 1000
next table: 1844
cur table: 1928
epoch: 1000
next table: 2246
cur table: 1940
epoch: 1000
next table: 2986
cur table: 1844
epoch: 1000
next table: 2605
cur table: 2986
epoch: 1000
next table: 1308
cur table: 2246
epoch: 1000
next table: 3156
cur table: 2605
epoch: 1000
next table: 2051
cur table: 3156
epoch: 1000
next table: 1394
cur table: 1308
epoch: 1000
next table: 1634
cur table: 2051
epoch: 1000
next table: 1657
cur table: 1634
epoch: 1000
next table: 2072
cur table: 1394
epoch: 1000
next table: 1657
cur table: 1657
epoch: 1000
next table: 1660
cur table: 1657
epoch: 1000
next table: 2130
cur table: 2072
epoch: 1000
next table: 1661
cur table: 1660
epoch: 1000
next table: 1632
cur table: 1661
epoch: 1000
next table: 2145
cur table: 2130
epoch: 1000
next table: 1638
cur table: 1632
epoch: 1000
next table: 1666
cur table: 1638
epoch: 1000
next table: 2192
cur table: 2145
epoch: 1000
next table: 1645
cur table: 1666
epoch: 1000
next table: 1636
cur table: 1645
epoch: 1000
next table: 1679
cur table: 1636
epoch: 1000
next table: 2397
cur table: 2192
epoch: 1000
next table: 1660
cur table: 1679
epoch: 1000
next table: 1634
cur table: 1660
epoch: 1000
next table: 1978
cur table: 1634
epoch: 1000
next table: 2086
cur table: 1978
epoch: 1000
next table: 2961
cur table: 2397
epoch: 1000
next table: 1778
cur table: 2086
epoch: 1000
next table: 1684
cur table: 1778
epoch: 1000
next table: 3565
cur table: 1684
epoch: 1000
next table: 2090
cur table: 2961
epoch: 1000
next table: 2387
cur table: 3565
epoch: 1000
next table: 2344
cur table: 2387
epoch: 1000
next table: 3465
cur table: 2344
epoch: 1000
next table: 1748
cur table: 2090
epoch: 1000
next table: 2337
cur table: 3465
epoch: 1000
next table: 2725
cur table: 2337
epoch: 1000
next table: 1535
cur table: 2725
epoch: 1000
next table: 1613
cur table: 1535
epoch: 1000
next table: 2418
cur table: 1748
epoch: 1000
next table: 1640
cur table: 1613
epoch: 1000
next table: 1640
cur table: 1640
epoch: 1000
next table: 1638
cur table: 1640
epoch: 1000
next table: 1613
cur table: 1638
epoch: 1000
next table: 1658
cur table: 1613
epoch: 1000
next table: 3527
cur table: 2418
epoch: 1000
next table: 1847
cur table: 1658
epoch: 1000
next table: 2077
cur table: 1847
epoch: 1000
next table: 1935
cur table: 2077
epoch: 1000
next table: 2514
cur table: 3527
epoch: 1000
next table: 4273
cur table: 1935
epoch: 1000
next table: 3150
cur table: 4273
epoch: 1000
next table: 1454
cur table: 2514
epoch: 1000
next table: 2524
cur table: 3150
epoch: 1000
next table: 3033
cur table: 2524
epoch: 1000
next table: 1181
cur table: 1454
epoch: 1000
next table: 2157
cur table: 3033
epoch: 1000
next table: 1553
cur table: 2157
epoch: 1000
next table: 1964
cur table: 1553
epoch: 1000
next table: 1880
cur table: 1181
epoch: 1000
next table: 1915
cur table: 1964
epoch: 1000
next table: 1640
cur table: 1915
epoch: 1000
next table: 1785
cur table: 1880
epoch: 1000
next table: 1676
cur table: 1640
epoch: 1000
next table: 1637
cur table: 1676
epoch: 1000
next table: 2094
cur table: 1785
epoch: 1000
next table: 1642
cur table: 1637
epoch: 1000
next table: 1664
cur table: 1642
epoch: 1000
next table: 2264
cur table: 2094
epoch: 1000
next table: 1653
cur table: 1664
epoch: 1000
next table: 1674
cur table: 1653
epoch: 1000
next table: 1675
cur table: 1674
epoch: 1000
next table: 2698
cur table: 2264
epoch: 1000
next table: 1667
cur table: 1675
epoch: 1000
next table: 1682
cur table: 1667
epoch: 1000
next table: 1652
cur table: 1682
epoch: 1000
next table: 1668
cur table: 1652
epoch: 1000
next table: 1659
cur table: 1668
epoch: 1000
next table: 1657
cur table: 1659
epoch: 1000
next table: 1652
cur table: 1657
epoch: 1000
next table: 1698
cur table: 1652
epoch: 1000
next table: 4931
cur table: 2698
epoch: 1000
next table: 1691
cur table: 1698
epoch: 1000
next table: 1648
cur table: 1691
epoch: 1000
next table: 1796
cur table: 1648
epoch: 1000
next table: 1893
cur table: 1796
epoch: 1000
next table: 1826
cur table: 1893
epoch: 1000
next table: 1743
cur table: 1826
epoch: 1000
next table: 1760
cur table: 1743
epoch: 1000
next table: 4717
cur table: 4931
epoch: 1000
next table: 1691
cur table: 1760
epoch: 1000
next table: 2608
cur table: 1691
epoch: 1000
next table: 3209
cur table: 2608
epoch: 1000
next table: 3354
cur table: 3209
epoch: 1000
next table: 2051
cur table: 3354
epoch: 1000
next table: 3071
cur table: 2051
epoch: 1000
next table: 2771
cur table: 3071
epoch: 1000
next table: 1649
cur table: 2771
epoch: 1000
next table: 3114
cur table: 4717
epoch: 1000
next table: 1704
cur table: 1649
epoch: 1000
next table: 3217
cur table: 1704
epoch: 1000
next table: 1742
cur table: 3217
epoch: 1000
next table: 1563
cur table: 1742
epoch: 1000
next table: 1638
cur table: 1563
epoch: 1000
next table: 3042
cur table: 3114
epoch: 1000
next table: 1617
cur table: 1638
epoch: 1000
next table: 1658
cur table: 1617
epoch: 1000
next table: 1641
cur table: 1658
epoch: 1000
next table: 1649
cur table: 1641
epoch: 1000
next table: 2880
cur table: 3042
epoch: 1000
next table: 1651
cur table: 1649
epoch: 1000
next table: 1658
cur table: 1651
epoch: 1000
next table: 1688
cur table: 1658
epoch: 1000
next table: 1650
cur table: 1688
epoch: 1000
next table: 3165
cur table: 2880
epoch: 1000
next table: 1774
cur table: 1650
epoch: 1000
next table: 2460
cur table: 1774
epoch: 1000
next table: 1870
cur table: 2460
epoch: 1000
next table: 1690
cur table: 1870
epoch: 1000
next table: 2901
cur table: 1690
epoch: 1000
next table: 2091
cur table: 2901
epoch: 1000
next table: 2212
cur table: 2091
epoch: 1000
next table: 2160
cur table: 2212
epoch: 1000
next table: 4577
cur table: 3165
epoch: 1000
next table: 3319
cur table: 2160
epoch: 1000
next table: 3198
cur table: 3319
epoch: 1000
next table: 2541
cur table: 3198
epoch: 1000
next table: 2405
cur table: 2541
epoch: 1000
next table: 2457
cur table: 2405
epoch: 1000
next table: 1564
cur table: 2457
epoch: 1000
next table: 2500
cur table: 4577
epoch: 1000
next table: 1626
cur table: 1564
epoch: 1000
next table: 1637
cur table: 1626
epoch: 1000
next table: 2336
cur table: 1637
epoch: 1000
next table: 2213
cur table: 2336
epoch: 1000
next table: 2295
cur table: 2213
epoch: 1000
next table: 2553
cur table: 2500
epoch: 1000
next table: 2235
cur table: 2295
epoch: 1000
next table: 1682
cur table: 2235
epoch: 1000
next table: 1781
cur table: 2553
epoch: 1000
next table: 1662
cur table: 1682
epoch: 1000
next table: 1678
cur table: 1662
epoch: 1000
next table: 1693
cur table: 1678
epoch: 1000
next table: 1711
cur table: 1693
epoch: 1000
next table: 3105
cur table: 1781
epoch: 1000
next table: 1684
cur table: 1711
epoch: 1000
next table: 1716
cur table: 1684
epoch: 1000
next table: 1678
cur table: 1716
epoch: 1000
next table: 1720
cur table: 1678
epoch: 1000
next table: 1695
cur table: 1720
epoch: 1000
next table: 1699
cur table: 1695
epoch: 1000
next table: 1718
cur table: 1699
epoch: 1000
next table: 1670
cur table: 1718
epoch: 1000
next table: 1690
cur table: 1670
epoch: 1000
next table: 1652
cur table: 1690
epoch: 1000
next table: 1701
cur table: 1652
epoch: 1000
next table: 1643
cur table: 1701
epoch: 1000
next table: 1712
cur table: 1643
epoch: 1000
next table: 1696
cur table: 1712
epoch: 1000
next table: 1692
cur table: 1696
epoch: 1000
next table: 1686
cur table: 1692
epoch: 1000
next table: 1702
cur table: 1686
epoch: 1000
next table: 1701
cur table: 1702
epoch: 1000
next table: 1709
cur table: 1701
epoch: 1000
next table: 1652
cur table: 1709
epoch: 1000
next table: 1710
cur table: 1652
epoch: 1000
next table: 1681
cur table: 1710
epoch: 1000
next table: 12764
cur table: 3105
epoch: 1000
next table: 1685
cur table: 1681
epoch: 1000
next table: 1718
cur table: 1685
epoch: 1000
next table: 1704
cur table: 1718
epoch: 1000
next table: 1717
cur table: 1704
epoch: 1000
next table: 1722
cur table: 1717
epoch: 1000
next table: 1676
cur table: 1722
epoch: 1000
next table: 1687
cur table: 1676
epoch: 1000
next table: 1683
cur table: 1687
epoch: 1000
next table: 1676
cur table: 1683
epoch: 1000
next table: 1942
cur table: 1676
epoch: 1000
next table: 2036
cur table: 1942
epoch: 1000
next table: 1902
cur table: 2036
epoch: 1000
next table: 1812
cur table: 1902
epoch: 1000
next table: 1765
cur table: 1812
epoch: 1000
next table: 1754
cur table: 1765
epoch: 1000
next table: 1658
cur table: 1754
epoch: 1000
next table: 1711
cur table: 1658
epoch: 1000
next table: 1716
cur table: 1711
epoch: 1000
next table: 1698
cur table: 1716
epoch: 1000
next table: 10884
cur table: 12764
epoch: 1000
next table: 1684
cur table: 1698
epoch: 1000
next table: 1677
cur table: 1684
epoch: 1000
next table: 1673
cur table: 1677
epoch: 1000
next table: 2759
cur table: 10884
epoch: 1000
next table: 1665
cur table: 1673
epoch: 1000
next table: 1691
cur table: 1665
epoch: 1000
next table: 1699
cur table: 1691
epoch: 1000
next table: 2416
cur table: 2759
epoch: 1000
next table: 1672
cur table: 1699
epoch: 1000
next table: 1640
cur table: 1672
epoch: 1000
next table: 2211
cur table: 2416
epoch: 1000
next table: 1672
cur table: 1640
epoch: 1000
next table: 1668
cur table: 1672
epoch: 1000
next table: 1964
cur table: 2211
epoch: 1000
next table: 1670
cur table: 1668
epoch: 1000
next table: 1686
cur table: 1670
epoch: 1000
next table: 1955
cur table: 1964
epoch: 1000
next table: 1682
cur table: 1686
epoch: 1000
next table: 1858
cur table: 1955
epoch: 1000
next table: 1765
cur table: 1682
epoch: 1000
next table: 2230
cur table: 1765
epoch: 1000
next table: 1885
cur table: 2230
epoch: 1000
next table: 2105
cur table: 1858
epoch: 1000
next table: 1740
cur table: 1885
epoch: 1000
next table: 1951
cur table: 2105
epoch: 1000
next table: 1714
cur table: 1740
epoch: 1000
next table: 1679
cur table: 1714
epoch: 1000
next table: 1899
cur table: 1951
epoch: 1000
next table: 1681
cur table: 1679
epoch: 1000
next table: 1676
cur table: 1681
epoch: 1000
next table: 1768
cur table: 1899
epoch: 1000
next table: 1656
cur table: 1676
epoch: 1000
next table: 1669
cur table: 1768
epoch: 1000
next table: 1696
cur table: 1656
epoch: 1000
next table: 1748
cur table: 1669
epoch: 1000
next table: 2158
cur table: 1696
epoch: 1000
next table: 2215
cur table: 2158
epoch: 1000
next table: 1893
cur table: 2215
epoch: 1000
next table: 2211
cur table: 1748
epoch: 1000
next table: 4167
cur table: 1893
epoch: 1000
next table: 2616
cur table: 4167
Heartbeat CPU 0 instructions: 20000003 cycles: 6519097 heartbeat IPC: 3.05112 cumulative IPC: 3.06791 (Simulation time: 0 hr 12 min 3 sec) 
epoch: 1000
next table: 2348
cur table: 2616
epoch: 1000
next table: 1506
cur table: 2211
epoch: 1000
next table: 2874
cur table: 2348
epoch: 1000
next table: 2105
cur table: 2874
epoch: 1000
next table: 1637
cur table: 2105
epoch: 1000
next table: 2051
cur table: 1506
epoch: 1000
next table: 1654
cur table: 1637
epoch: 1000
next table: 1636
cur table: 1654
epoch: 1000
next table: 1647
cur table: 1636
epoch: 1000
next table: 2518
cur table: 2051
epoch: 1000
next table: 1632
cur table: 1647
epoch: 1000
next table: 1630
cur table: 1632
epoch: 1000
next table: 2391
cur table: 1630
epoch: 1000
next table: 2546
cur table: 2391
epoch: 1000
next table: 2555
cur table: 2518
epoch: 1000
next table: 4342
cur table: 2546
epoch: 1000
next table: 1181
cur table: 2555
epoch: 1000
next table: 2242
cur table: 4342
epoch: 1000
next table: 2766
cur table: 2242
epoch: 1000
next table: 1612
cur table: 2766
epoch: 1000
next table: 2014
cur table: 1612
epoch: 1000
next table: 2083
cur table: 1181
epoch: 1000
next table: 2370
cur table: 2014
epoch: 1000
next table: 1799
cur table: 2370
epoch: 1000
next table: 1531
cur table: 2083
epoch: 1000
next table: 1620
cur table: 1799
epoch: 1000
next table: 1618
cur table: 1620
epoch: 1000
next table: 1973
cur table: 1531
epoch: 1000
next table: 1647
cur table: 1618
epoch: 1000
next table: 1863
cur table: 1973
epoch: 1000
next table: 1631
cur table: 1647
epoch: 1000
next table: 1645
cur table: 1631
epoch: 1000
next table: 1903
cur table: 1863
epoch: 1000
next table: 1667
cur table: 1645
epoch: 1000
next table: 1664
cur table: 1667
epoch: 1000
next table: 1943
cur table: 1903
epoch: 1000
next table: 1657
cur table: 1664
epoch: 1000
next table: 1835
cur table: 1943
epoch: 1000
next table: 1656
cur table: 1657
epoch: 1000
next table: 1680
cur table: 1656
epoch: 1000
next table: 1767
cur table: 1835
epoch: 1000
next table: 1653
cur table: 1680
epoch: 1000
next table: 1780
cur table: 1767
epoch: 1000
next table: 1675
cur table: 1653
epoch: 1000
next table: 1667
cur table: 1675
epoch: 1000
next table: 1846
cur table: 1780
epoch: 1000
next table: 1650
cur table: 1667
epoch: 1000
next table: 2228
cur table: 1650
epoch: 1000
next table: 2036
cur table: 2228
epoch: 1000
next table: 1855
cur table: 2036
epoch: 1000
next table: 1729
cur table: 1855
epoch: 1000
next table: 1682
cur table: 1729
epoch: 1000
next table: 1682
cur table: 1682
epoch: 1000
next table: 4654
cur table: 1846
epoch: 1000
next table: 1695
cur table: 1682
epoch: 1000
next table: 2642
cur table: 1695
epoch: 1000
next table: 3550
cur table: 2642
epoch: 1000
next table: 2105
cur table: 4654
epoch: 1000
next table: 2608
cur table: 3550
epoch: 1000
next table: 2446
cur table: 2608
epoch: 1000
next table: 2778
cur table: 2446
epoch: 1000
next table: 1323
cur table: 2105
epoch: 1000
next table: 1725
cur table: 2778
epoch: 1000
next table: 1669
cur table: 1725
epoch: 1000
next table: 1661
cur table: 1669
epoch: 1000
next table: 1659
cur table: 1661
epoch: 1000
next table: 3267
cur table: 1323
epoch: 1000
next table: 1701
cur table: 1659
epoch: 1000
next table: 3164
cur table: 1701
epoch: 1000
next table: 2666
cur table: 3164
epoch: 1000
next table: 1461
cur table: 3267
epoch: 1000
next table: 2047
cur table: 2666
epoch: 1000
next table: 1800
cur table: 2047
epoch: 1000
next table: 2850
cur table: 1800
epoch: 1000
next table: 2017
cur table: 2850
epoch: 1000
next table: 2340
cur table: 1461
epoch: 1000
next table: 1625
cur table: 2017
epoch: 1000
next table: 1680
cur table: 1625
epoch: 1000
next table: 1658
cur table: 1680
epoch: 1000
next table: 1662
cur table: 1658
epoch: 1000
next table: 3617
cur table: 1662
epoch: 1000
next table: 3167
cur table: 2340
epoch: 1000
next table: 2278
cur table: 3617
epoch: 1000
next table: 2164
cur table: 2278
epoch: 1000
next table: 1531
cur table: 3167
epoch: 1000
next table: 2133
cur table: 2164
epoch: 1000
next table: 1864
cur table: 2133
epoch: 1000
next table: 1625
cur table: 1531
epoch: 1000
next table: 1659
cur table: 1864
epoch: 1000
next table: 1651
cur table: 1659
epoch: 1000
next table: 1662
cur table: 1651
epoch: 1000
next table: 2509
cur table: 1625
epoch: 1000
next table: 1685
cur table: 1662
epoch: 1000
next table: 1652
cur table: 1685
epoch: 1000
next table: 1650
cur table: 1652
epoch: 1000
next table: 1662
cur table: 1650
epoch: 1000
next table: 1669
cur table: 1662
epoch: 1000
next table: 1671
cur table: 1669
epoch: 1000
next table: 1759
cur table: 1671
epoch: 1000
next table: 4783
cur table: 2509
epoch: 1000
next table: 2123
cur table: 1759
epoch: 1000
next table: 4251
cur table: 2123
epoch: 1000
next table: 2545
cur table: 4251
epoch: 1000
next table: 1901
cur table: 2545
epoch: 1000
next table: 1631
cur table: 1901
epoch: 1000
next table: 1652
cur table: 1631
epoch: 1000
next table: 1645
cur table: 1652
epoch: 1000
next table: 3342
cur table: 4783
epoch: 1000
next table: 1653
cur table: 1645
epoch: 1000
next table: 1693
cur table: 1653
epoch: 1000
next table: 2490
cur table: 1693
epoch: 1000
next table: 2465
cur table: 2490
epoch: 1000
next table: 2411
cur table: 3342
epoch: 1000
next table: 1824
cur table: 2465
epoch: 1000
next table: 1846
cur table: 1824
epoch: 1000
next table: 2572
cur table: 1846
epoch: 1000
next table: 2333
cur table: 2572
epoch: 1000
next table: 3102
cur table: 2333
epoch: 1000
next table: 2239
cur table: 2411
epoch: 1000
next table: 1611
cur table: 3102
epoch: 1000
next table: 1775
cur table: 1611
epoch: 1000
next table: 1938
cur table: 2239
epoch: 1000
next table: 1751
cur table: 1775
epoch: 1000
next table: 2045
cur table: 1938
epoch: 1000
next table: 1723
cur table: 1751
epoch: 1000
next table: 1709
cur table: 1723
epoch: 1000
next table: 2083
cur table: 2045
epoch: 1000
next table: 1775
cur table: 1709
epoch: 1000
next table: 1787
cur table: 1775
epoch: 1000
next table: 2050
cur table: 2083
epoch: 1000
next table: 1744
cur table: 1787
epoch: 1000
next table: 1781
cur table: 1744
epoch: 1000
next table: 2047
cur table: 2050
epoch: 1000
next table: 1774
cur table: 1781
epoch: 1000
next table: 1765
cur table: 1774
epoch: 1000
next table: 2038
cur table: 2047
epoch: 1000
next table: 1765
cur table: 1765
epoch: 1000
next table: 1759
cur table: 1765
epoch: 1000
next table: 2029
cur table: 2038
epoch: 1000
next table: 1758
cur table: 1759
epoch: 1000
next table: 1758
cur table: 1758
epoch: 1000
next table: 2040
cur table: 2029
epoch: 1000
next table: 1768
cur table: 1758
epoch: 1000
next table: 1747
cur table: 1768
epoch: 1000
next table: 2034
cur table: 2040
epoch: 1000
next table: 1757
cur table: 1747
epoch: 1000
next table: 1733
cur table: 1757
epoch: 1000
next table: 2015
cur table: 2034
epoch: 1000
next table: 1796
cur table: 1733
epoch: 1000
next table: 1759
cur table: 1796
epoch: 1000
next table: 2089
cur table: 2015
epoch: 1000
next table: 1790
cur table: 1759
epoch: 1000
next table: 1745
cur table: 1790
epoch: 1000
next table: 1778
cur table: 1745
epoch: 1000
next table: 2760
cur table: 2089
epoch: 1000
next table: 1771
cur table: 1778
epoch: 1000
next table: 1775
cur table: 1771
epoch: 1000
next table: 1792
cur table: 1775
epoch: 1000
next table: 1803
cur table: 1792
epoch: 1000
next table: 3171
cur table: 2760
epoch: 1000
next table: 1763
cur table: 1803
epoch: 1000
next table: 1799
cur table: 1763
epoch: 1000
next table: 1758
cur table: 1799
epoch: 1000
next table: 1794
cur table: 1758
epoch: 1000
next table: 3303
cur table: 3171
epoch: 1000
next table: 1780
cur table: 1794
epoch: 1000
next table: 1790
cur table: 1780
epoch: 1000
next table: 1766
cur table: 1790
epoch: 1000
next table: 1793
cur table: 1766
epoch: 1000
next table: 2941
cur table: 3303
epoch: 1000
next table: 1774
cur table: 1793
epoch: 1000
next table: 1813
cur table: 1774
epoch: 1000
next table: 1746
cur table: 1813
epoch: 1000
next table: 2587
cur table: 2941
epoch: 1000
next table: 1764
cur table: 1746
epoch: 1000
next table: 1787
cur table: 1764
epoch: 1000
next table: 2393
cur table: 2587
epoch: 1000
next table: 1802
cur table: 1787
epoch: 1000
next table: 1763
cur table: 1802
epoch: 1000
next table: 1788
cur table: 1763
epoch: 1000
next table: 1777
cur table: 1788
epoch: 1000
next table: 2785
cur table: 2393
epoch: 1000
next table: 1764
cur table: 1777
epoch: 1000
next table: 1785
cur table: 1764
epoch: 1000
next table: 1786
cur table: 1785
epoch: 1000
next table: 1785
cur table: 1786
epoch: 1000
next table: 3031
cur table: 2785
epoch: 1000
next table: 1808
cur table: 1785
epoch: 1000
next table: 1797
cur table: 1808
epoch: 1000
next table: 1756
cur table: 1797
epoch: 1000
next table: 1792
cur table: 1756
epoch: 1000
next table: 1780
cur table: 1792
epoch: 1000
next table: 1737
cur table: 1780
epoch: 1000
next table: 1745
cur table: 1737
epoch: 1000
next table: 5186
cur table: 3031
epoch: 1000
next table: 1772
cur table: 1745
epoch: 1000
next table: 1766
cur table: 1772
epoch: 1000
next table: 1806
cur table: 1766
epoch: 1000
next table: 1771
cur table: 1806
epoch: 1000
next table: 1790
cur table: 1771
epoch: 1000
next table: 1785
cur table: 1790
epoch: 1000
next table: 1796
cur table: 1785
epoch: 1000
next table: 4411
cur table: 5186
epoch: 1000
next table: 1798
cur table: 1796
epoch: 1000
next table: 1778
cur table: 1798
epoch: 1000
next table: 1796
cur table: 1778
epoch: 1000
next table: 1822
cur table: 1796
epoch: 1000
next table: 1824
cur table: 1822
epoch: 1000
next table: 1795
cur table: 1824
epoch: 1000
next table: 1780
cur table: 1795
epoch: 1000
next table: 4891
cur table: 4411
epoch: 1000
next table: 1801
cur table: 1780
epoch: 1000
next table: 1816
cur table: 1801
epoch: 1000
next table: 1787
cur table: 1816
epoch: 1000
next table: 1789
cur table: 1787
epoch: 1000
next table: 1770
cur table: 1789
epoch: 1000
next table: 1764
cur table: 1770
epoch: 1000
next table: 1744
cur table: 1764
epoch: 1000
next table: 1744
cur table: 1744
epoch: 1000
next table: 1774
cur table: 1744
epoch: 1000
next table: 1788
cur table: 1774
epoch: 1000
next table: 6557
cur table: 4891
epoch: 1000
next table: 1773
cur table: 1788
epoch: 1000
next table: 1802
cur table: 1773
epoch: 1000
next table: 1752
cur table: 1802
epoch: 1000
next table: 1766
cur table: 1752
epoch: 1000
next table: 1734
cur table: 1766
epoch: 1000
next table: 1714
cur table: 1734
epoch: 1000
next table: 1729
cur table: 1714
epoch: 1000
next table: 1784
cur table: 1729
epoch: 1000
next table: 5479
cur table: 6557
epoch: 1000
next table: 1773
cur table: 1784
epoch: 1000
next table: 1778
cur table: 1773
epoch: 1000
next table: 1800
cur table: 1778
epoch: 1000
next table: 1772
cur table: 1800
epoch: 1000
next table: 1806
cur table: 1772
epoch: 1000
next table: 1750
cur table: 1806
epoch: 1000
next table: 1750
cur table: 1750
epoch: 1000
next table: 1754
cur table: 1750
epoch: 1000
next table: 1739
cur table: 1754
epoch: 1000
next table: 1731
cur table: 1739
epoch: 1000
next table: 1747
cur table: 1731
epoch: 1000
next table: 1769
cur table: 1747
epoch: 1000
next table: 1759
cur table: 1769
epoch: 1000
next table: 1717
cur table: 1759
epoch: 1000
next table: 8287
cur table: 5479
epoch: 1000
next table: 2089
cur table: 1717
epoch: 1000
next table: 1814
cur table: 2089
epoch: 1000
next table: 1756
cur table: 1814
epoch: 1000
next table: 1720
cur table: 1756
epoch: 1000
next table: 1717
cur table: 1720
epoch: 1000
next table: 3849
cur table: 8287
epoch: 1000
next table: 1726
cur table: 1717
epoch: 1000
next table: 1685
cur table: 1726
epoch: 1000
next table: 1696
cur table: 1685
epoch: 1000
next table: 2567
cur table: 3849
epoch: 1000
next table: 1698
cur table: 1696
epoch: 1000
next table: 1707
cur table: 1698
epoch: 1000
next table: 2037
cur table: 2567
epoch: 1000
next table: 1700
cur table: 1707
epoch: 1000
next table: 1680
cur table: 1700
epoch: 1000
next table: 2078
cur table: 2037
epoch: 1000
next table: 1681
cur table: 1680
epoch: 1000
next table: 1652
cur table: 1681
epoch: 1000
next table: 2069
cur table: 2078
epoch: 1000
next table: 1672
cur table: 1652
epoch: 1000
next table: 1672
cur table: 1672
epoch: 1000
next table: 1930
cur table: 2069
epoch: 1000
next table: 1670
cur table: 1672
epoch: 1000
next table: 1655
cur table: 1670
epoch: 1000
next table: 1862
cur table: 1930
epoch: 1000
next table: 1652
cur table: 1655
epoch: 1000
next table: 1666
cur table: 1652
epoch: 1000
next table: 1971
cur table: 1862
epoch: 1000
next table: 1671
cur table: 1666
epoch: 1000
next table: 1669
cur table: 1671
epoch: 1000
next table: 1980
cur table: 1971
epoch: 1000
next table: 1703
cur table: 1669
epoch: 1000
next table: 1696
cur table: 1703
epoch: 1000
next table: 2058
cur table: 1980
epoch: 1000
next table: 1728
cur table: 1696
epoch: 1000
next table: 2023
cur table: 2058
epoch: 1000
next table: 1685
cur table: 1728
epoch: 1000
next table: 1715
cur table: 1685
epoch: 1000
next table: 1929
cur table: 2023
epoch: 1000
next table: 1689
cur table: 1715
epoch: 1000
next table: 1677
cur table: 1689
epoch: 1000
next table: 1781
cur table: 1929
epoch: 1000
next table: 1696
cur table: 1677
epoch: 1000
next table: 1860
cur table: 1781
epoch: 1000
next table: 1691
cur table: 1696
epoch: 1000
next table: 1712
cur table: 1691
epoch: 1000
next table: 1849
cur table: 1860
epoch: 1000
next table: 1684
cur table: 1712
epoch: 1000
next table: 1683
cur table: 1684
epoch: 1000
next table: 1930
cur table: 1849
epoch: 1000
next table: 1699
cur table: 1683
epoch: 1000
next table: 1947
cur table: 1930
epoch: 1000
next table: 1689
cur table: 1699
epoch: 1000
next table: 1706
cur table: 1689
epoch: 1000
next table: 1899
cur table: 1947
epoch: 1000
next table: 1689
cur table: 1706
epoch: 1000
next table: 1714
cur table: 1689
epoch: 1000
next table: 2007
cur table: 1899
epoch: 1000
next table: 1677
cur table: 1714
epoch: 1000
next table: 1661
cur table: 1677
epoch: 1000
next table: 2207
cur table: 2007
epoch: 1000
next table: 1669
cur table: 1661
epoch: 1000
next table: 1690
cur table: 1669
epoch: 1000
next table: 1669
cur table: 1690
epoch: 1000
next table: 2250
cur table: 2207
epoch: 1000
next table: 1682
cur table: 1669
epoch: 1000
next table: 1685
cur table: 1682
epoch: 1000
next table: 2247
cur table: 2250
epoch: 1000
next table: 1670
cur table: 1685
epoch: 1000
next table: 1673
cur table: 1670
epoch: 1000
next table: 1688
cur table: 1673
epoch: 1000
next table: 2304
cur table: 2247
epoch: 1000
next table: 2136
cur table: 1688
epoch: 1000
next table: 2142
cur table: 2136
epoch: 1000
next table: 2080
cur table: 2304
epoch: 1000
next table: 1787
cur table: 2142
epoch: 1000
next table: 1739
cur table: 1787
epoch: 1000
next table: 2058
cur table: 2080
epoch: 1000
next table: 1713
cur table: 1739
epoch: 1000
next table: 2035
cur table: 2058
epoch: 1000
next table: 1718
cur table: 1713
epoch: 1000
next table: 1705
cur table: 1718
epoch: 1000
next table: 1706
cur table: 1705
epoch: 1000
next table: 2137
cur table: 2035
epoch: 1000
next table: 1709
cur table: 1706
epoch: 1000
next table: 1690
cur table: 1709
epoch: 1000
next table: 2192
cur table: 2137
epoch: 1000
next table: 1693
cur table: 1690
epoch: 1000
next table: 1716
cur table: 1693
epoch: 1000
next table: 2192
cur table: 2192
epoch: 1000
next table: 1682
cur table: 1716
epoch: 1000
next table: 1664
cur table: 1682
epoch: 1000
next table: 2046
cur table: 2192
epoch: 1000
next table: 1676
cur table: 1664
epoch: 1000
next table: 1654
cur table: 1676
epoch: 1000
next table: 1908
cur table: 2046
epoch: 1000
next table: 1653
cur table: 1654
epoch: 1000
next table: 1903
cur table: 1908
epoch: 1000
next table: 1617
cur table: 1653
epoch: 1000
next table: 1636
cur table: 1617
epoch: 1000
next table: 1848
cur table: 1903
epoch: 1000
next table: 1693
cur table: 1636
epoch: 1000
next table: 2440
cur table: 1693
epoch: 1000
next table: 1865
cur table: 1848
epoch: 1000
next table: 2087
cur table: 2440
epoch: 1000
next table: 1952
cur table: 1865
epoch: 1000
next table: 1824
cur table: 2087
epoch: 1000
next table: 1714
cur table: 1824
epoch: 1000
next table: 1927
cur table: 1952
epoch: 1000
next table: 1714
cur table: 1714
epoch: 1000
next table: 1703
cur table: 1714
epoch: 1000
next table: 1887
cur table: 1927
epoch: 1000
next table: 1706
cur table: 1703
epoch: 1000
next table: 2396
cur table: 1706
epoch: 1000
next table: 1916
cur table: 1887
epoch: 1000
next table: 2900
cur table: 2396
epoch: 1000
next table: 1368
cur table: 1916
epoch: 1000
next table: 2583
cur table: 2900
epoch: 1000
next table: 3395
cur table: 2583
epoch: 1000
next table: 1171
cur table: 1368
epoch: 1000
next table: 1836
cur table: 3395
epoch: 1000
next table: 1844
cur table: 1836
epoch: 1000
next table: 2092
cur table: 1171
epoch: 1000
next table: 1777
cur table: 1844
epoch: 1000
next table: 1728
cur table: 1777
epoch: 1000
next table: 1713
cur table: 1728
epoch: 1000
next table: 2165
cur table: 2092
epoch: 1000
next table: 1685
cur table: 1713
epoch: 1000
next table: 2093
cur table: 1685
epoch: 1000
next table: 2042
cur table: 2165
epoch: 1000
next table: 2528
cur table: 2093
epoch: 1000
next table: 2228
cur table: 2528
epoch: 1000
next table: 1764
cur table: 2042
epoch: 1000
next table: 1774
cur table: 2228
epoch: 1000
next table: 1702
cur table: 1774
epoch: 1000
next table: 3477
cur table: 1702
epoch: 1000
next table: 2177
cur table: 1764
epoch: 1000
next table: 3515
cur table: 3477
epoch: 1000
next table: 1055
cur table: 2177
epoch: 1000
next table: 2712
cur table: 3515
epoch: 1000
next table: 2355
cur table: 2712
epoch: 1000
next table: 1529
cur table: 1055
epoch: 1000
next table: 1866
cur table: 2355
epoch: 1000
next table: 1772
cur table: 1866
epoch: 1000
next table: 1596
cur table: 1529
epoch: 1000
next table: 1666
cur table: 1772
epoch: 1000
next table: 1663
cur table: 1666
epoch: 1000
next table: 1956
cur table: 1596
epoch: 1000
next table: 1645
cur table: 1663
epoch: 1000
next table: 1896
cur table: 1956
epoch: 1000
next table: 1685
cur table: 1645
epoch: 1000
next table: 1666
cur table: 1685
epoch: 1000
next table: 1925
cur table: 1896
epoch: 1000
next table: 1657
cur table: 1666
epoch: 1000
next table: 1681
cur table: 1657
epoch: 1000
next table: 1962
cur table: 1925
epoch: 1000
next table: 1640
cur table: 1681
epoch: 1000
next table: 1656
cur table: 1640
epoch: 1000
next table: 2039
cur table: 1962
epoch: 1000
next table: 1651
cur table: 1656
epoch: 1000
next table: 1644
cur table: 1651
epoch: 1000
next table: 2286
cur table: 2039
epoch: 1000
next table: 1709
cur table: 1644
epoch: 1000
next table: 1760
cur table: 1709
epoch: 1000
next table: 1930
cur table: 1760
epoch: 1000
next table: 1828
cur table: 1930
epoch: 1000
next table: 2790
cur table: 2286
epoch: 1000
next table: 2753
cur table: 1828
epoch: 1000
next table: 3607
cur table: 2753
epoch: 1000
next table: 1483
cur table: 2790
epoch: 1000
next table: 3091
cur table: 3607
epoch: 1000
next table: 2225
cur table: 3091
epoch: 1000
next table: 1560
cur table: 1483
epoch: 1000
next table: 2435
cur table: 2225
epoch: 1000
next table: 2472
cur table: 2435
epoch: 1000
next table: 1567
cur table: 2472
epoch: 1000
next table: 1508
cur table: 1560
epoch: 1000
next table: 1630
cur table: 1567
epoch: 1000
next table: 1603
cur table: 1630
epoch: 1000
next table: 1626
cur table: 1603
epoch: 1000
next table: 2801
cur table: 1508
epoch: 1000
next table: 1670
cur table: 1626
epoch: 1000
next table: 1720
cur table: 1670
epoch: 1000
next table: 2490
cur table: 1720
epoch: 1000
next table: 2105
cur table: 2801
epoch: 1000
next table: 2545
cur table: 2490
epoch: 1000
next table: 1967
cur table: 2545
epoch: 1000
next table: 1783
cur table: 1967
epoch: 1000
next table: 1967
cur table: 2105
epoch: 1000
next table: 3483
cur table: 1783
epoch: 1000
next table: 2679
cur table: 3483
epoch: 1000
next table: 1231
cur table: 1967
epoch: 1000
next table: 1664
cur table: 2679
epoch: 1000
next table: 1694
cur table: 1231
epoch: 1000
next table: 1685
cur table: 1664
epoch: 1000
next table: 1681
cur table: 1685
epoch: 1000
next table: 1963
cur table: 1694
epoch: 1000
next table: 1670
cur table: 1681
epoch: 1000
next table: 1673
cur table: 1670
epoch: 1000
next table: 2116
cur table: 1963
epoch: 1000
next table: 1672
cur table: 1673
epoch: 1000
next table: 1677
cur table: 1672
epoch: 1000
next table: 1656
cur table: 1677
epoch: 1000
next table: 1658
cur table: 1656
epoch: 1000
next table: 2931
cur table: 2116
epoch: 1000
next table: 1685
cur table: 1658
epoch: 1000
next table: 1673
cur table: 1685
epoch: 1000
next table: 1674
cur table: 1673
epoch: 1000
next table: 1682
cur table: 1674
epoch: 1000
next table: 1676
cur table: 1682
epoch: 1000
next table: 1669
cur table: 1676
epoch: 1000
next table: 1658
cur table: 1669
epoch: 1000
next table: 1686
cur table: 1658
epoch: 1000
next table: 4917
cur table: 2931
epoch: 1000
next table: 1664
cur table: 1686
epoch: 1000
next table: 1650
cur table: 1664
epoch: 1000
next table: 1673
cur table: 1650
epoch: 1000
next table: 1672
cur table: 1673
epoch: 1000
next table: 1673
cur table: 1672
epoch: 1000
next table: 1681
cur table: 1673
epoch: 1000
next table: 1680
cur table: 1681
epoch: 1000
next table: 1658
cur table: 1680
epoch: 1000
next table: 5321
cur table: 4917
epoch: 1000
next table: 1645
cur table: 1658
epoch: 1000
next table: 1674
cur table: 1645
epoch: 1000
next table: 1693
cur table: 1674
epoch: 1000
next table: 1693
cur table: 1693
epoch: 1000
next table: 1728
cur table: 1693
epoch: 1000
next table: 1832
cur table: 1728
epoch: 1000
next table: 4463
cur table: 5321
epoch: 1000
next table: 1925
cur table: 1832
epoch: 1000
next table: 1985
cur table: 1925
epoch: 1000
next table: 1748
cur table: 1985
epoch: 1000
next table: 1662
cur table: 1748
epoch: 1000
next table: 1715
cur table: 1662
epoch: 1000
next table: 3387
cur table: 4463
epoch: 1000
next table: 1670
cur table: 1715
epoch: 1000
next table: 1685
cur table: 1670
epoch: 1000
next table: 1675
cur table: 1685
epoch: 1000
next table: 1678
cur table: 1675
epoch: 1000
next table: 3288
cur table: 3387
epoch: 1000
next table: 1680
cur table: 1678
epoch: 1000
next table: 1934
cur table: 1680
epoch: 1000
next table: 2140
cur table: 1934
epoch: 1000
next table: 1989
cur table: 2140
epoch: 1000
next table: 3120
cur table: 3288
epoch: 1000
next table: 1761
cur table: 1989
epoch: 1000
next table: 2093
cur table: 1761
epoch: 1000
next table: 3327
cur table: 2093
Heartbeat CPU 0 instructions: 30000003 cycles: 9796299 heartbeat IPC: 3.05138 cumulative IPC: 3.06238 (Simulation time: 0 hr 17 min 1 sec) 
epoch: 1000
next table: 2452
cur table: 3327
epoch: 1000
next table: 2233
cur table: 3120
epoch: 1000
next table: 3466
cur table: 2452
epoch: 1000
next table: 2735
cur table: 3466
epoch: 1000
next table: 1738
cur table: 2735
epoch: 1000
next table: 1837
cur table: 1738
epoch: 1000
next table: 2093
cur table: 2233
epoch: 1000
next table: 2547
cur table: 1837
epoch: 1000
next table: 2687
cur table: 2547
epoch: 1000
next table: 1524
cur table: 2687
epoch: 1000
next table: 1805
cur table: 2093
epoch: 1000
next table: 1616
cur table: 1524
epoch: 1000
next table: 1659
cur table: 1616
epoch: 1000
next table: 2274
cur table: 1805
epoch: 1000
next table: 1637
cur table: 1659
epoch: 1000
next table: 1642
cur table: 1637
epoch: 1000
next table: 1690
cur table: 1642
epoch: 1000
next table: 2178
cur table: 2274
epoch: 1000
next table: 1773
cur table: 1690
epoch: 1000
next table: 2212
cur table: 1773
epoch: 1000
next table: 2980
cur table: 2212
epoch: 1000
next table: 2301
cur table: 2178
epoch: 1000
next table: 2817
cur table: 2980
epoch: 1000
next table: 3020
cur table: 2817
epoch: 1000
next table: 1595
cur table: 3020
epoch: 1000
next table: 1621
cur table: 1595
epoch: 1000
next table: 2117
cur table: 2301
epoch: 1000
next table: 2528
cur table: 1621
epoch: 1000
next table: 2153
cur table: 2528
epoch: 1000
next table: 1628
cur table: 2153
epoch: 1000
next table: 1844
cur table: 2117
epoch: 1000
next table: 1666
cur table: 1628
epoch: 1000
next table: 1650
cur table: 1666
epoch: 1000
next table: 2413
cur table: 1844
epoch: 1000
next table: 1656
cur table: 1650
epoch: 1000
next table: 1647
cur table: 1656
epoch: 1000
next table: 1665
cur table: 1647
epoch: 1000
next table: 2508
cur table: 2413
epoch: 1000
next table: 1655
cur table: 1665
epoch: 1000
next table: 1652
cur table: 1655
epoch: 1000
next table: 1667
cur table: 1652
epoch: 1000
next table: 1672
cur table: 1667
epoch: 1000
next table: 2883
cur table: 2508
epoch: 1000
next table: 1651
cur table: 1672
epoch: 1000
next table: 1664
cur table: 1651
epoch: 1000
next table: 1660
cur table: 1664
epoch: 1000
next table: 1662
cur table: 1660
epoch: 1000
next table: 1682
cur table: 1662
epoch: 1000
next table: 1987
cur table: 1682
epoch: 1000
next table: 1953
cur table: 1987
epoch: 1000
next table: 4820
cur table: 2883
epoch: 1000
next table: 1738
cur table: 1953
epoch: 1000
next table: 2720
cur table: 1738
epoch: 1000
next table: 3576
cur table: 2720
epoch: 1000
next table: 2295
cur table: 3576
epoch: 1000
next table: 2829
cur table: 2295
epoch: 1000
next table: 2374
cur table: 2829
epoch: 1000
next table: 1685
cur table: 2374
epoch: 1000
next table: 1618
cur table: 1685
epoch: 1000
next table: 1645
cur table: 1618
epoch: 1000
next table: 1637
cur table: 1645
epoch: 1000
next table: 4503
cur table: 4820
epoch: 1000
next table: 1641
cur table: 1637
epoch: 1000
next table: 1648
cur table: 1641
epoch: 1000
next table: 1651
cur table: 1648
epoch: 1000
next table: 1679
cur table: 1651
epoch: 1000
next table: 2940
cur table: 4503
epoch: 1000
next table: 1694
cur table: 1679
epoch: 1000
next table: 2112
cur table: 1694
epoch: 1000
next table: 1880
cur table: 2112
epoch: 1000
next table: 2683
cur table: 2940
epoch: 1000
next table: 1739
cur table: 1880
epoch: 1000
next table: 4243
cur table: 1739
epoch: 1000
next table: 2890
cur table: 4243
epoch: 1000
next table: 2105
cur table: 2890
epoch: 1000
next table: 1947
cur table: 2683
epoch: 1000
next table: 2721
cur table: 2105
epoch: 1000
next table: 2804
cur table: 2721
epoch: 1000
next table: 1592
cur table: 2804
epoch: 1000
next table: 1840
cur table: 1947
epoch: 1000
next table: 1608
cur table: 1592
epoch: 1000
next table: 1579
cur table: 1608
epoch: 1000
next table: 1605
cur table: 1579
epoch: 1000
next table: 2101
cur table: 1605
epoch: 1000
next table: 2542
cur table: 1840
epoch: 1000
next table: 2160
cur table: 2101
epoch: 1000
next table: 3252
cur table: 2160
epoch: 1000
next table: 2476
cur table: 3252
epoch: 1000
next table: 1754
cur table: 2542
epoch: 1000
next table: 1743
cur table: 2476
epoch: 1000
next table: 1806
cur table: 1743
epoch: 1000
next table: 2013
cur table: 1754
epoch: 1000
next table: 1831
cur table: 1806
epoch: 1000
next table: 1820
cur table: 1831
epoch: 1000
next table: 2500
cur table: 2013
epoch: 1000
next table: 1845
cur table: 1820
epoch: 1000
next table: 1849
cur table: 1845
epoch: 1000
next table: 1842
cur table: 1849
epoch: 1000
next table: 2926
cur table: 2500
epoch: 1000
next table: 1849
cur table: 1842
epoch: 1000
next table: 1808
cur table: 1849
epoch: 1000
next table: 1790
cur table: 1808
epoch: 1000
next table: 1776
cur table: 1790
epoch: 1000
next table: 1734
cur table: 1776
epoch: 1000
next table: 1776
cur table: 1734
epoch: 1000
next table: 1764
cur table: 1776
epoch: 1000
next table: 1789
cur table: 1764
epoch: 1000
next table: 1824
cur table: 1789
epoch: 1000
next table: 5632
cur table: 2926
epoch: 1000
next table: 1795
cur table: 1824
epoch: 1000
next table: 1798
cur table: 1795
epoch: 1000
next table: 1833
cur table: 1798
epoch: 1000
next table: 1812
cur table: 1833
epoch: 1000
next table: 1830
cur table: 1812
epoch: 1000
next table: 1812
cur table: 1830
epoch: 1000
next table: 1906
cur table: 1812
epoch: 1000
next table: 1846
cur table: 1906
epoch: 1000
next table: 1841
cur table: 1846
epoch: 1000
next table: 1858
cur table: 1841
epoch: 1000
next table: 1827
cur table: 1858
epoch: 1000
next table: 1830
cur table: 1827
epoch: 1000
next table: 1838
cur table: 1830
epoch: 1000
next table: 1826
cur table: 1838
epoch: 1000
next table: 1816
cur table: 1826
epoch: 1000
next table: 1842
cur table: 1816
epoch: 1000
next table: 1889
cur table: 1842
epoch: 1000
next table: 1853
cur table: 1889
epoch: 1000
next table: 1898
cur table: 1853
epoch: 1000
next table: 11943
cur table: 5632
epoch: 1000
next table: 1860
cur table: 1898
epoch: 1000
next table: 1834
cur table: 1860
epoch: 1000
next table: 1808
cur table: 1834
epoch: 1000
next table: 1808
cur table: 1808
epoch: 1000
next table: 1756
cur table: 1808
epoch: 1000
next table: 1773
cur table: 1756
epoch: 1000
next table: 1765
cur table: 1773
epoch: 1000
next table: 1764
cur table: 1765
epoch: 1000
next table: 1803
cur table: 1764
epoch: 1000
next table: 1773
cur table: 1803
epoch: 1000
next table: 1734
cur table: 1773
epoch: 1000
next table: 1757
cur table: 1734
epoch: 1000
next table: 1760
cur table: 1757
epoch: 1000
next table: 1703
cur table: 1760
epoch: 1000
next table: 1755
cur table: 1703
epoch: 1000
next table: 1837
cur table: 1755
epoch: 1000
next table: 1820
cur table: 1837
epoch: 1000
next table: 1828
cur table: 1820
epoch: 1000
next table: 11186
cur table: 11943
epoch: 1000
next table: 1827
cur table: 1828
epoch: 1000
next table: 1845
cur table: 1827
epoch: 1000
next table: 1846
cur table: 1845
epoch: 1000
next table: 1831
cur table: 1846
epoch: 1000
next table: 1841
cur table: 1831
epoch: 1000
next table: 1874
cur table: 1841
epoch: 1000
next table: 1906
cur table: 1874
epoch: 1000
next table: 1896
cur table: 1906
epoch: 1000
next table: 1907
cur table: 1896
epoch: 1000
next table: 1948
cur table: 1907
epoch: 1000
next table: 1893
cur table: 1948
epoch: 1000
next table: 1897
cur table: 1893
epoch: 1000
next table: 1845
cur table: 1897
epoch: 1000
next table: 1871
cur table: 1845
epoch: 1000
next table: 8667
cur table: 11186
epoch: 1000
next table: 1856
cur table: 1871
epoch: 1000
next table: 1870
cur table: 1856
epoch: 1000
next table: 1797
cur table: 1870
epoch: 1000
next table: 1840
cur table: 1797
epoch: 1000
next table: 1804
cur table: 1840
epoch: 1000
next table: 1834
cur table: 1804
epoch: 1000
next table: 4233
cur table: 8667
epoch: 1000
next table: 1870
cur table: 1834
epoch: 1000
next table: 1887
cur table: 1870
epoch: 1000
next table: 1885
cur table: 1887
epoch: 1000
next table: 2771
cur table: 4233
epoch: 1000
next table: 1863
cur table: 1885
epoch: 1000
next table: 1840
cur table: 1863
epoch: 1000
next table: 2525
cur table: 2771
epoch: 1000
next table: 1857
cur table: 1840
epoch: 1000
next table: 1934
cur table: 1857
epoch: 1000
next table: 2687
cur table: 1934
epoch: 1000
next table: 2625
cur table: 2525
epoch: 1000
next table: 2066
cur table: 2687
epoch: 1000
next table: 1914
cur table: 2066
epoch: 1000
next table: 1812
cur table: 1914
epoch: 1000
next table: 2525
cur table: 2625
epoch: 1000
next table: 1802
cur table: 1812
epoch: 1000
next table: 1769
cur table: 1802
epoch: 1000
next table: 2204
cur table: 2525
epoch: 1000
next table: 1784
cur table: 1769
epoch: 1000
next table: 1767
cur table: 1784
epoch: 1000
next table: 1984
cur table: 2204
epoch: 1000
next table: 1794
cur table: 1767
epoch: 1000
next table: 1790
cur table: 1794
epoch: 1000
next table: 1901
cur table: 1984
epoch: 1000
next table: 2146
cur table: 1790
epoch: 1000
next table: 2859
cur table: 2146
epoch: 1000
next table: 2186
cur table: 2859
epoch: 1000
next table: 1616
cur table: 1901
epoch: 1000
next table: 2043
cur table: 2186
epoch: 1000
next table: 2000
cur table: 2043
epoch: 1000
next table: 2385
cur table: 1616
epoch: 1000
next table: 1913
cur table: 2000
epoch: 1000
next table: 1838
cur table: 1913
epoch: 1000
next table: 2177
cur table: 2385
epoch: 1000
next table: 1891
cur table: 1838
epoch: 1000
next table: 1873
cur table: 1891
epoch: 1000
next table: 2109
cur table: 2177
epoch: 1000
next table: 1801
cur table: 1873
epoch: 1000
next table: 1818
cur table: 1801
epoch: 1000
next table: 2048
cur table: 2109
epoch: 1000
next table: 1834
cur table: 1818
epoch: 1000
next table: 2337
cur table: 1834
epoch: 1000
next table: 2256
cur table: 2337
epoch: 1000
next table: 2532
cur table: 2048
epoch: 1000
next table: 1948
cur table: 2256
epoch: 1000
next table: 2777
cur table: 1948
epoch: 1000
next table: 1758
cur table: 2532
epoch: 1000
next table: 3444
cur table: 2777
epoch: 1000
next table: 2004
cur table: 3444
epoch: 1000
next table: 2189
cur table: 2004
epoch: 1000
next table: 1557
cur table: 1758
epoch: 1000
next table: 3575
cur table: 2189
epoch: 1000
next table: 1284
cur table: 1557
epoch: 1000
next table: 2233
cur table: 3575
epoch: 1000
next table: 2329
cur table: 2233
epoch: 1000
next table: 1665
cur table: 2329
epoch: 1000
next table: 1905
cur table: 1284
epoch: 1000
next table: 1744
cur table: 1665
epoch: 1000
next table: 1745
cur table: 1744
epoch: 1000
next table: 2373
cur table: 1905
epoch: 1000
next table: 1712
cur table: 1745
epoch: 1000
next table: 1789
cur table: 1712
epoch: 1000
next table: 2810
cur table: 1789
epoch: 1000
next table: 1862
cur table: 2373
epoch: 1000
next table: 2099
cur table: 2810
epoch: 1000
next table: 1787
cur table: 2099
epoch: 1000
next table: 1649
cur table: 1862
epoch: 1000
next table: 4164
cur table: 1787
epoch: 1000
next table: 1194
cur table: 1649
epoch: 1000
next table: 2314
cur table: 4164
epoch: 1000
next table: 1708
cur table: 2314
epoch: 1000
next table: 1649
cur table: 1194
epoch: 1000
next table: 1870
cur table: 1708
epoch: 1000
next table: 1814
cur table: 1649
epoch: 1000
next table: 1898
cur table: 1870
epoch: 1000
next table: 1812
cur table: 1814
epoch: 1000
next table: 1882
cur table: 1898
epoch: 1000
next table: 1904
cur table: 1882
epoch: 1000
next table: 1783
cur table: 1812
epoch: 1000
next table: 1881
cur table: 1904
epoch: 1000
next table: 1706
cur table: 1783
epoch: 1000
next table: 1851
cur table: 1881
epoch: 1000
next table: 1674
cur table: 1706
epoch: 1000
next table: 1840
cur table: 1851
epoch: 1000
next table: 1668
cur table: 1674
epoch: 1000
next table: 1831
cur table: 1840
epoch: 1000
next table: 2054
cur table: 1831
epoch: 1000
next table: 2484
cur table: 2054
epoch: 1000
next table: 2233
cur table: 1668
epoch: 1000
next table: 2068
cur table: 2484
epoch: 1000
next table: 2366
cur table: 2068
epoch: 1000
next table: 2030
cur table: 2233
epoch: 1000
next table: 4063
cur table: 2366
epoch: 1000
next table: 2773
cur table: 4063
epoch: 1000
next table: 1180
cur table: 2030
epoch: 1000
next table: 3619
cur table: 2773
epoch: 1000
next table: 1775
cur table: 3619
epoch: 1000
next table: 1881
cur table: 1775
epoch: 1000
next table: 2397
cur table: 1180
epoch: 1000
next table: 1917
cur table: 1881
epoch: 1000
next table: 1885
cur table: 1917
epoch: 1000
next table: 2080
cur table: 1885
epoch: 1000
next table: 2364
cur table: 2397
epoch: 1000
next table: 2399
cur table: 2080
epoch: 1000
next table: 1679
cur table: 2399
epoch: 1000
next table: 1637
cur table: 2364
epoch: 1000
next table: 2061
cur table: 1679
epoch: 1000
next table: 1978
cur table: 2061
epoch: 1000
next table: 1057
cur table: 1637
epoch: 1000
next table: 1828
cur table: 1978
epoch: 1000
next table: 1587
cur table: 1057
epoch: 1000
next table: 1737
cur table: 1828
epoch: 1000
next table: 1782
cur table: 1737
epoch: 1000
next table: 1848
cur table: 1587
epoch: 1000
next table: 1780
cur table: 1782
epoch: 1000
next table: 1941
cur table: 1848
epoch: 1000
next table: 1796
cur table: 1780
epoch: 1000
next table: 1739
cur table: 1796
epoch: 1000
next table: 1975
cur table: 1941
epoch: 1000
next table: 1787
cur table: 1739
epoch: 1000
next table: 1796
cur table: 1787
epoch: 1000
next table: 1999
cur table: 1975
epoch: 1000
next table: 1823
cur table: 1796
epoch: 1000
next table: 1822
cur table: 1823
epoch: 1000
next table: 2072
cur table: 1999
epoch: 1000
next table: 1813
cur table: 1822
epoch: 1000
next table: 1696
cur table: 1813
epoch: 1000
next table: 2000
cur table: 2072
epoch: 1000
next table: 1700
cur table: 1696
epoch: 1000
next table: 1658
cur table: 1700
epoch: 1000
next table: 2253
cur table: 2000
epoch: 1000
next table: 1693
cur table: 1658
epoch: 1000
next table: 1729
cur table: 1693
epoch: 1000
next table: 1687
cur table: 1729
epoch: 1000
next table: 2430
cur table: 2253
epoch: 1000
next table: 1702
cur table: 1687
epoch: 1000
next table: 1674
cur table: 1702
epoch: 1000
next table: 1687
cur table: 1674
epoch: 1000
next table: 1695
cur table: 1687
epoch: 1000
next table: 3054
cur table: 2430
epoch: 1000
next table: 1714
cur table: 1695
epoch: 1000
next table: 1721
cur table: 1714
epoch: 1000
next table: 1742
cur table: 1721
epoch: 1000
next table: 3066
cur table: 3054
epoch: 1000
next table: 1775
cur table: 1742
epoch: 1000
next table: 1794
cur table: 1775
epoch: 1000
next table: 1779
cur table: 1794
epoch: 1000
next table: 1787
cur table: 1779
epoch: 1000
next table: 1775
cur table: 1787
epoch: 1000
next table: 3668
cur table: 3066
epoch: 1000
next table: 1759
cur table: 1775
epoch: 1000
next table: 1778
cur table: 1759
epoch: 1000
next table: 1749
cur table: 1778
epoch: 1000
next table: 1755
cur table: 1749
epoch: 1000
next table: 1762
cur table: 1755
epoch: 1000
next table: 1757
cur table: 1762
epoch: 1000
next table: 1766
cur table: 1757
epoch: 1000
next table: 1782
cur table: 1766
epoch: 1000
next table: 5514
cur table: 3668
epoch: 1000
next table: 1785
cur table: 1782
epoch: 1000
next table: 1823
cur table: 1785
epoch: 1000
next table: 1816
cur table: 1823
epoch: 1000
next table: 1839
cur table: 1816
epoch: 1000
next table: 1947
cur table: 1839
epoch: 1000
next table: 1987
cur table: 1947
epoch: 1000
next table: 1867
cur table: 1987
epoch: 1000
next table: 1817
cur table: 1867
epoch: 1000
next table: 5392
cur table: 5514
epoch: 1000
next table: 1802
cur table: 1817
epoch: 1000
next table: 1756
cur table: 1802
epoch: 1000
next table: 1774
cur table: 1756
epoch: 1000
next table: 2958
cur table: 5392
epoch: 1000
next table: 1716
cur table: 1774
epoch: 1000
next table: 1641
cur table: 1716
epoch: 1000
next table: 1658
cur table: 1641
epoch: 1000
next table: 2566
cur table: 2958
epoch: 1000
next table: 1668
cur table: 1658
epoch: 1000
next table: 1631
cur table: 1668
epoch: 1000
next table: 2038
cur table: 2566
epoch: 1000
next table: 1650
cur table: 1631
epoch: 1000
next table: 1671
cur table: 1650
epoch: 1000
next table: 2044
cur table: 2038
epoch: 1000
next table: 1662
cur table: 1671
epoch: 1000
next table: 1696
cur table: 1662
epoch: 1000
next table: 1951
cur table: 2044
epoch: 1000
next table: 1675
cur table: 1696
epoch: 1000
next table: 1673
cur table: 1675
epoch: 1000
next table: 1951
cur table: 1951
epoch: 1000
next table: 1663
cur table: 1673
epoch: 1000
next table: 1650
cur table: 1663
epoch: 1000
next table: 1956
cur table: 1951
epoch: 1000
next table: 1623
cur table: 1650
epoch: 1000
next table: 2018
cur table: 1956
epoch: 1000
next table: 1855
cur table: 1623
epoch: 1000
next table: 1996
cur table: 1855
epoch: 1000
next table: 2032
cur table: 2018
epoch: 1000
next table: 1942
cur table: 1996
epoch: 1000
next table: 1950
cur table: 1942
epoch: 1000
next table: 2140
cur table: 2032
epoch: 1000
next table: 1858
cur table: 1950
epoch: 1000
next table: 1770
cur table: 1858
epoch: 1000
next table: 1703
cur table: 1770
epoch: 1000
next table: 2284
cur table: 2140
epoch: 1000
next table: 1699
cur table: 1703
epoch: 1000
next table: 1732
cur table: 1699
epoch: 1000
next table: 2375
cur table: 2284
epoch: 1000
next table: 1690
cur table: 1732
epoch: 1000
next table: 1696
[...]
cur table: 1881
epoch: 1000
next table: 2380
cur table: 2347
epoch: 1000
next table: 2062
cur table: 2380
epoch: 1000
next table: 1898
cur table: 2062
epoch: 1000
next table: 2462
cur table: 1898
epoch: 1000
next table: 2047
cur table: 2462
epoch: 1000
next table: 1712
cur table: 2047
epoch: 1000
next table: 1828
cur table: 1712
epoch: 1000
next table: 4266
cur table: 4874
epoch: 1000
next table: 1808
cur table: 1828
epoch: 1000
next table: 1814
cur table: 1808
epoch: 1000
next table: 1821
cur table: 1814
epoch: 1000
next table: 1911
cur table: 1821
epoch: 1000
next table: 2337
cur table: 1911
epoch: 1000
next table: 1583
cur table: 2337
epoch: 1000
next table: 1604
cur table: 1583
epoch: 1000
next table: 1588
cur table: 1604
epoch: 1000
next table: 3477
cur table: 4266
epoch: 1000
next table: 1402
cur table: 1588
epoch: 1000
next table: 1444
cur table: 1402
epoch: 1000
next table: 1585
cur table: 1444
epoch: 1000
next table: 1452
cur table: 1585
epoch: 1000
next table: 1840
cur table: 1452
epoch: 1000
next table: 1581
cur table: 1840
epoch: 1000
next table: 1280
cur table: 1581
epoch: 1000
next table: 1810
cur table: 1280
epoch: 1000
next table: 2850
cur table: 3477
epoch: 1000
next table: 1921
cur table: 1810
epoch: 1000
next table: 1937
cur table: 1921
epoch: 1000
next table: 1999
cur table: 2850
epoch: 1000
next table: 1907
cur table: 1937
epoch: 1000
next table: 2000
cur table: 1999
epoch: 1000
next table: 1922
cur table: 1907
epoch: 1000
next table: 1876
cur table: 1922
epoch: 1000
next table: 2009
cur table: 2000
Heartbeat CPU 0 instructions: 100000001 cycles: 218319636 heartbeat IPC: 0.298366 cumulative IPC: 0.247832 (Simulation time: 0 hr 57 min 47 sec) 
Finished CPU 0 instructions: 50000000 cycles: 201749362 cumulative IPC: 0.247832 (Simulation time: 0 hr 57 min 47 sec) 

ChampSim completed all CPUs

Region of Interest Statistics

CPU 0 cumulative IPC: 0.247832 instructions: 50000000 cycles: 201749362
ITLB TOTAL     ACCESS:    8898262  HIT:    8898262  MISS:          0  HIT %:        100  MISS %:          0   MPKI: 0
ITLB LOAD TRANSLATION ACCESS:    8898262  HIT:    8898262  MISS:          0  HIT %:        100  MISS %:          0   MPKI: 0
ITLB PREFETCH  REQUESTED:          0  ISSUED:          0  USEFUL:          0  USELESS:          0
ITLB USEFUL LOAD PREFETCHES:          0 PREFETCH ISSUED TO LOWER LEVEL:          0  ACCURACY: -nan
ITLB TIMELY PREFETCHES:          0 LATE PREFETCHES: 0 DROPPED PREFETCHES: 0
ITLB PREFETCHES SAME FILL-ORIGIN LEVEL: 0 DIFFERENT FILL-ORIGIN LEVEL: 0
ITLB AVERAGE MISS LATENCY: -nan cycles
ITLB RQ	ACCESS:    9126207	FORWARD:          0	MERGED:     227946	TO_CACHE:    8898261

Revised Interactions: positive negative neutral
ITLB_interactions 0 0 0 -nan -nan -nan
DTLB TOTAL     ACCESS:   16157866  HIT:   15403835  MISS:     754031  HIT %:    95.3334  MISS %:    4.66665   MPKI: 15.0806
DTLB LOAD TRANSLATION ACCESS:   16157866  HIT:   15403835  MISS:     754031  HIT %:    95.3334  MISS %:    4.66665   MPKI: 15.0806
DTLB PREFETCH  REQUESTED:          0  ISSUED:          0  USEFUL:          0  USELESS:          0
DTLB USEFUL LOAD PREFETCHES:          0 PREFETCH ISSUED TO LOWER LEVEL:          0  ACCURACY: -nan
DTLB TIMELY PREFETCHES:          0 LATE PREFETCHES: 0 DROPPED PREFETCHES: 0
DTLB PREFETCHES SAME FILL-ORIGIN LEVEL: 0 DIFFERENT FILL-ORIGIN LEVEL: 0
DTLB AVERAGE MISS LATENCY: 61.283 cycles
DTLB RQ	ACCESS:   19212135	FORWARD:          0	MERGED:    2854105	TO_CACHE:   16358030

Revised Interactions: positive negative neutral
DTLB_interactions 0 0 0 -nan -nan -nan
STLB TOTAL     ACCESS:    3849423  HIT:    3516087  MISS:     333336  HIT %:    91.3406  MISS %:    8.65938   MPKI: 6.66672
STLB LOAD TRANSLATION ACCESS:     754031  HIT:     420809  MISS:     333222  HIT %:    55.8079  MISS %:    44.1921   MPKI: 6.66444
STLB TRANSLATION FROM L1D PREFETCHER ACCESS:    3095392  HIT:    3095278  MISS:        114  HIT %:    99.9963  MISS %: 0.00368289   MPKI: 0.00228
STLB PREFETCH  REQUESTED:          0  ISSUED:          0  USEFUL:        109  USELESS:          5
STLB USEFUL LOAD PREFETCHES:        109 PREFETCH ISSUED TO LOWER LEVEL:          0  ACCURACY: inf
STLB TIMELY PREFETCHES:        109 LATE PREFETCHES: 0 DROPPED PREFETCHES: 0
STLB PREFETCHES SAME FILL-ORIGIN LEVEL: 0 DIFFERENT FILL-ORIGIN LEVEL: 0
STLB AVERAGE MISS LATENCY: 118.254 cycles
STLB RQ	ACCESS:    4840298	FORWARD:          0	MERGED:     990804	TO_CACHE:    3849494

Revised Interactions: positive negative neutral
STLB_interactions 0 0 0 -nan -nan -nan
STLB Hit, L1D data hit: 0
STLB Hit, L2C data hit: 0
STLB Hit, LLC data hit: 0
STLB Hit, LLC data miss: 0
STLB STLB hints to L2: 0
L1D TOTAL     ACCESS:   22740549  HIT:   19455976  MISS:    3284573  HIT %:    85.5563  MISS %:    14.4437   MPKI: 65.6915
L1D LOAD      ACCESS:   13889235  HIT:   12457372  MISS:    1431863  HIT %:    89.6908  MISS %:    10.3092   MPKI: 28.6373
L1D RFO       ACCESS:    5083726  HIT:    5067375  MISS:      16351  HIT %:    99.6784  MISS %:   0.321634   MPKI: 0.32702
L1D PREFETCH  ACCESS:    3767588  HIT:    1931229  MISS:    1836359  HIT %:     51.259  MISS %:     48.741   MPKI: 36.7272
L1D PREFETCH  REQUESTED:    8175141  ISSUED:    8175141  USEFUL:     250557  USELESS:    1585780
L1D USEFUL LOAD PREFETCHES:     250557 PREFETCH ISSUED TO LOWER LEVEL:    1836636  ACCURACY: 13.6422
L1D TIMELY PREFETCHES:     250557 LATE PREFETCHES: 192299 DROPPED PREFETCHES: 0
L1D PREFETCHES SAME FILL-ORIGIN LEVEL: 1836636 DIFFERENT FILL-ORIGIN LEVEL: 0
L1D AVERAGE MISS LATENCY: 12219.8 cycles
L1D RQ	ACCESS:   16794779	FORWARD:          0	MERGED:    1514629	TO_CACHE:   14101287
L1D WQ	ACCESS:    5137441	FORWARD:    1181470	MERGED:      26593	TO_CACHE:    5110848
L1D PQ	ACCESS:    4088874	FORWARD:          0	MERGED:          0	TO_CACHE:    4086267

Revised Interactions: positive negative neutral
L1D_interactions 0 0 0 -nan -nan -nan
L1D UNIQUE REGIONS ACCESSED: 0
L1D REGIONS CONFLICTS: 0
L1D Cross Page Prefetch Requests: 0
L1D Same Page Prefetch Requests: 7454155
L1D ROI Sum of L1D PQ occupancy: 53137897
L1D PREFETCHES PUSHED FROM L2C: 0
L1I TOTAL     ACCESS:    9126208  HIT:    9126208  MISS:          0  HIT %:        100  MISS %:          0   MPKI: 0
L1I LOAD      ACCESS:    9126208  HIT:    9126208  MISS:          0  HIT %:        100  MISS %:          0   MPKI: 0
L1I PREFETCH  REQUESTED:          0  ISSUED:          0  USEFUL:          0  USELESS:          0
L1I USEFUL LOAD PREFETCHES:          0 PREFETCH ISSUED TO LOWER LEVEL:          0  ACCURACY: -nan
L1I TIMELY PREFETCHES:          0 LATE PREFETCHES: 0 DROPPED PREFETCHES: 0
L1I PREFETCHES SAME FILL-ORIGIN LEVEL: 0 DIFFERENT FILL-ORIGIN LEVEL: 0
L1I AVERAGE MISS LATENCY: -nan cycles
L1I RQ	ACCESS:   14456955	FORWARD:          0	MERGED:    5330748	TO_CACHE:    9126207

Revised Interactions: positive negative neutral
L1I_interactions 0 0 0 -nan -nan -nan
BTB TOTAL     ACCESS:   11386717  HIT:   10701614  MISS:     685103  HIT %:    93.9833  MISS %:    6.01669   MPKI: 13.7021
BTB BRANCH_DIRECT_JUMP	ACCESS:    1087946  HIT:    1087925  MISS:         21
BTB BRANCH_INDIRECT	ACCESS:          0  HIT:          0  MISS:          0
BTB BRANCH_CONDITIONAL	ACCESS:    7208053  HIT:    7208011  MISS:         42
BTB BRANCH_DIRECT_CALL	ACCESS:    1489152  HIT:    1489139  MISS:         13
BTB BRANCH_INDIRECT_CALL	ACCESS:      56206  HIT:      56198  MISS:          8
BTB BRANCH_RETURN	ACCESS:    1545360  HIT:     860341  MISS:     685019
BTB BRANCH_OTHER ACCESS:          0  HIT:          0  MISS:          0

L2C TOTAL     ACCESS:    4197700  HIT:    1791168  MISS:    2406532  HIT %:    42.6702  MISS %:    57.3298   MPKI: 48.1306
L2C LOAD      ACCESS:    1431863  HIT:     481041  MISS:     950822  HIT %:    33.5955  MISS %:    66.4045   MPKI: 19.0164
L2C DATA LOAD MPKI: 19.0164
L2C INSTRUCTION LOAD MPKI: 0
L2C RFO       ACCESS:      16073  HIT:      13553  MISS:       2520  HIT %:    84.3215  MISS %:    15.6785   MPKI: 0.0504
L2C PREFETCH  ACCESS:    2062318  HIT:     755738  MISS:    1306580  HIT %:    36.6451  MISS %:    63.3549   MPKI: 26.1316
L2C DATA PREFETCH MPKI: 26.1316
L2C INSTRUCTION PREFETCH MPKI: 0
L2C WRITEBACK ACCESS:     130094  HIT:     129516  MISS:        578  HIT %:    99.5557  MISS %:   0.444294   MPKI: 0.01156
L2C LOAD TRANSLATION ACCESS:     557160  HIT:     411242  MISS:     145918  HIT %:    73.8104  MISS %:    26.1896   MPKI: 2.91836
L2C TRANSLATION FROM L1D PREFETCHER ACCESS:        192  HIT:         78  MISS:        114  HIT %:     40.625  MISS %:     59.375   MPKI: 0.00228
L2C PREFETCH  REQUESTED:     249902  ISSUED:     249902  USEFUL:      24153  USELESS:    1282141
L2C USEFUL LOAD PREFETCHES:      24153 PREFETCH ISSUED TO LOWER LEVEL:    1306582  ACCURACY: 1.84856
L2C TIMELY PREFETCHES:      24153 LATE PREFETCHES: 2 DROPPED PREFETCHES: 0
L2C PREFETCHES SAME FILL-ORIGIN LEVEL: 56362 DIFFERENT FILL-ORIGIN LEVEL: 0
L2C AVERAGE MISS LATENCY: 173.083 cycles
L2C RQ	ACCESS:    2005289	FORWARD:          0	MERGED:          0	TO_CACHE:    2005288
L2C WQ	ACCESS:     130095	FORWARD:          7	MERGED:          0	TO_CACHE:     130095
L2C PQ	ACCESS:    2086538	FORWARD:          0	MERGED:      24136	TO_CACHE:    2062396

Revised Interactions: positive negative neutral
L2C_interactions 57842 1299692 488127 3.13394 70.4188 26.4473
L2C Instructions Evicting Data 0
L2C Translations Evicting Data 134639
L2C Data Evicting Data 2124523
L2C Instructions Evicting Instructions 0
L2C Translations Evicting Instructions 0
L2C Data Evicting Instructions 0
L2C Instructions Evicting Translations 0
L2C Translations Evicting Translations 11393
L2C Data Evicting Translations 135399
L2C Dense regions hint from L2: 0
PSCL5 TOTAL     ACCESS:     333336  HIT:     333336  MISS:          0  HIT %:        100  MISS %:          0   MPKI: 0
PSCL5 LOAD TRANSLATION ACCESS:     333222  HIT:     333222  MISS:          0  HIT %:        100  MISS %:          0   MPKI: 0
PSCL5 TRANSLATION FROM L1D PREFETCHER ACCESS:        114  HIT:        114  MISS:          0  HIT %:        100  MISS %:          0   MPKI: 0
PSCL5 PREFETCH  REQUESTED:          0  ISSUED:          0  USEFUL:          0  USELESS:          0
PSCL5 USEFUL LOAD PREFETCHES:          0 PREFETCH ISSUED TO LOWER LEVEL:          0  ACCURACY: -nan
PSCL5 TIMELY PREFETCHES:          0 LATE PREFETCHES: 0 DROPPED PREFETCHES: 0
PSCL5 PREFETCHES SAME FILL-ORIGIN LEVEL: 0 DIFFERENT FILL-ORIGIN LEVEL: 0

Revised Interactions: positive negative neutral
PSCL5_interactions 0 0 0 -nan -nan -nan
PSCL4 TOTAL     ACCESS:     333336  HIT:     333336  MISS:          0  HIT %:        100  MISS %:          0   MPKI: 0
PSCL4 LOAD TRANSLATION ACCESS:     333222  HIT:     333222  MISS:          0  HIT %:        100  MISS %:          0   MPKI: 0
PSCL4 TRANSLATION FROM L1D PREFETCHER ACCESS:        114  HIT:        114  MISS:          0  HIT %:        100  MISS %:          0   MPKI: 0
PSCL4 PREFETCH  REQUESTED:          0  ISSUED:          0  USEFUL:          0  USELESS:          0
PSCL4 USEFUL LOAD PREFETCHES:          0 PREFETCH ISSUED TO LOWER LEVEL:          0  ACCURACY: -nan
PSCL4 TIMELY PREFETCHES:          0 LATE PREFETCHES: 0 DROPPED PREFETCHES: 0
PSCL4 PREFETCHES SAME FILL-ORIGIN LEVEL: 0 DIFFERENT FILL-ORIGIN LEVEL: 0

Revised Interactions: positive negative neutral
PSCL4_interactions 0 0 0 -nan -nan -nan
PSCL3 TOTAL     ACCESS:     333336  HIT:     333336  MISS:          0  HIT %:        100  MISS %:          0   MPKI: 0
PSCL3 LOAD TRANSLATION ACCESS:     333222  HIT:     333222  MISS:          0  HIT %:        100  MISS %:          0   MPKI: 0
PSCL3 TRANSLATION FROM L1D PREFETCHER ACCESS:        114  HIT:        114  MISS:          0  HIT %:        100  MISS %:          0   MPKI: 0
PSCL3 PREFETCH  REQUESTED:          0  ISSUED:          0  USEFUL:          0  USELESS:          0
PSCL3 USEFUL LOAD PREFETCHES:          0 PREFETCH ISSUED TO LOWER LEVEL:          0  ACCURACY: -nan
PSCL3 TIMELY PREFETCHES:          0 LATE PREFETCHES: 0 DROPPED PREFETCHES: 0
PSCL3 PREFETCHES SAME FILL-ORIGIN LEVEL: 0 DIFFERENT FILL-ORIGIN LEVEL: 0

Revised Interactions: positive negative neutral
PSCL3_interactions 0 0 0 -nan -nan -nan
PSCL2 TOTAL     ACCESS:     333336  HIT:     109320  MISS:     224016  HIT %:    32.7957  MISS %:    67.2043   MPKI: 4.48032
PSCL2 LOAD TRANSLATION ACCESS:     333300  HIT:     109284  MISS:     224016  HIT %:    32.7885  MISS %:    67.2115   MPKI: 4.48032
PSCL2 TRANSLATION FROM L1D PREFETCHER ACCESS:         36  HIT:         36  MISS:          0  HIT %:        100  MISS %:          0   MPKI: 0
PSCL2 PREFETCH  REQUESTED:          0  ISSUED:          0  USEFUL:          0  USELESS:          0
PSCL2 USEFUL LOAD PREFETCHES:          0 PREFETCH ISSUED TO LOWER LEVEL:          0  ACCURACY: -nan
PSCL2 TIMELY PREFETCHES:          0 LATE PREFETCHES: 0 DROPPED PREFETCHES: 0
PSCL2 PREFETCHES SAME FILL-ORIGIN LEVEL: 0 DIFFERENT FILL-ORIGIN LEVEL: 0

Revised Interactions: positive negative neutral
PSCL2_interactions 0 0 0 -nan -nan -nan
LLC TOTAL     ACCESS:    2481297  HIT:     551691  MISS:    1929606  HIT %:     22.234  MISS %:     77.766   MPKI: 38.5921
LLC LOAD      ACCESS:     950821  HIT:     356060  MISS:     594761  HIT %:    37.4476  MISS %:    62.5524   MPKI: 11.8952
LLC RFO       ACCESS:       2518  HIT:       2323  MISS:        195  HIT %:    92.2558  MISS %:    7.74424   MPKI: 0.0039
LLC PREFETCH  ACCESS:    1306581  HIT:     106613  MISS:    1199968  HIT %:    8.15969  MISS %:    91.8403   MPKI: 23.9994
LLC WRITEBACK ACCESS:      75345  HIT:      31767  MISS:      43578  HIT %:    42.1621  MISS %:    57.8379   MPKI: 0.87156
LLC LOAD TRANSLATION ACCESS:     145918  HIT:      54822  MISS:      91096  HIT %:    37.5704  MISS %:    62.4296   MPKI: 1.82192
LLC TRANSLATION FROM L1D PREFETCHER ACCESS:        114  HIT:        106  MISS:          8  HIT %:    92.9825  MISS %:    7.01754   MPKI: 0.00016
LLC PREFETCH  REQUESTED:          0  ISSUED:          0  USEFUL:       4595  USELESS:     181534
LLC USEFUL LOAD PREFETCHES:       4595 PREFETCH ISSUED TO LOWER LEVEL:    1199968  ACCURACY: 0.382927
LLC TIMELY PREFETCHES:       4595 LATE PREFETCHES: 0 DROPPED PREFETCHES: 0
LLC PREFETCHES SAME FILL-ORIGIN LEVEL: 0 DIFFERENT FILL-ORIGIN LEVEL: 0
LLC AVERAGE MISS LATENCY: 178.454 cycles
LLC RQ	ACCESS:    1099372	FORWARD:          0	MERGED:          0	TO_CACHE:    1099371
LLC WQ	ACCESS:      75345	FORWARD:          2	MERGED:          0	TO_CACHE:      75345
LLC PQ	ACCESS:    1306582	FORWARD:          0	MERGED:          0	TO_CACHE:    1306581

Revised Interactions: positive negative neutral
LLC_interactions 4903 178785 90362 1.78909 65.2381 32.9728
LLC Dense regions hint to LLC: 0

RAW hits: 439879
Loads Generated: 17234658
Loads sent to L1D: 16794779
Stores Generated: 5137437
Stores sent to L1D: 5137441
Major fault: 0 Minor fault: 119987
Allocated PAGES: 119987

stream: 
stream:times selected: 8991389
stream:pref_filled: 2367061
stream:pref_useful: 413618
stream:pref_late: 209465
stream:misses: 749954
stream:misses_by_poll: 0

CS: 
CS:times selected: 447928
CS:pref_filled: 193983
CS:pref_useful: 184883
CS:pref_late: 70
CS:misses: 1568
CS:misses_by_poll: 40

CPLX: 
CPLX:times selected: 8468692
CPLX:pref_filled: 766059
CPLX:pref_useful: 38544
CPLX:pref_late: 2328
CPLX:misses: 2270685
CPLX:misses_by_poll: 4383

NL_L1: 
NL:times selected: 87890
NL:pref_filled: 31286
NL:pref_useful: 7429
NL:pref_late: 2867
NL:misses: 29499
NL:misses_by_poll: 1

total selections: 17995899
total_filled: 1836359
total_useful: 250557
total_late: 214730
total_polluted: 4424
total_misses_after_warmup: 1643917
conflicts: 56241
Degree Incremented Times: 100626
Degree Decremented Times: 302323

L1 IP Table Write Accesses: 13985832
L1 IP Table Read Accesses: 13929591
L1 RST Write Accesses: 4655967
L1 RST Read Accesses: 9311934
L1 CSPT Write Accesses: 4655967
L1 CSPT Read Accesses: 9042412
L1 RR Filter Tag Write Accesses: 4088874
L1 RR Filter Tag Read Accesses: 169212966
L1 IP Table Tag Write Accesses: 14101289
L1 IP Table Tag Read Accesses: 14101289
L1 RST Tag Write Accesses: 0
L1 RST Tag Read Accesses: 43941406
L1 RR Filter Write Accesses: 0
L1 RR Filter Read Accesses: 6141389
test: 5216603
L2 IP Table Read Accesses: 6531325
L2 IP Table Write Accesses: 5099803
L2 IP Table Tag Read Accesses: 3266088
L2 IP Table Tag Write Accesses: 3266088

DRAM Statistics
 CHANNEL 0
 RQ ROW_BUFFER_HIT:      85527  ROW_BUFFER_MISS:    1800482
 DBUS_CONGESTED:         67
 WQ ROW_BUFFER_HIT:      21516  ROW_BUFFER_MISS:      44447  FULL:          0

 AVG_CONGESTED_CYCLE: 4
 All warmup complete: 2
Channel 0 Bank busy for read cycles: 0
Channel 0 Bank busy for write cycles: 0
Channel 0
Rank 0
0banks busy for read cycles: 64711305
0banks busy for write cycles: 41562
1banks busy for read cycles: 46157039
1banks busy for write cycles: 8600573
2banks busy for read cycles: 36796240
2banks busy for write cycles: 2362468
3banks busy for read cycles: 24091401
3banks busy for write cycles: 714773
4banks busy for read cycles: 10633066
4banks busy for write cycles: 242867
5banks busy for read cycles: 4650701
5banks busy for write cycles: 80795
6banks busy for read cycles: 1939340
6banks busy for write cycles: 30178
7banks busy for read cycles: 570842
7banks busy for write cycles: 10746
8banks busy for read cycles: 113513
8banks busy for write cycles: 1954

CPU 0 Branch Prediction Accuracy: 93.7357% MPKI: 15.3008 Average ROB Occupancy at Mispredict: 20.2304
Branch types
NOT_BRANCH: 37786876 75.5738%
BRANCH_DIRECT_JUMP: 1087946 2.17589%
BRANCH_INDIRECT: 0 0%
BRANCH_CONDITIONAL: 8034080 16.0682%
BRANCH_DIRECT_CALL: 1489152 2.9783%
BRANCH_INDIRECT_CALL: 56206 0.112412%
BRANCH_RETURN: 1545360 3.09072%
BRANCH_OTHER: 0 0%

@sumon_overall_L1D    250557    192299    192299   1585780   1836359   8175141   8175141
@Sumon_Early_by_class_L1D    137301     83242     27789      2483
@Sumon_Late_by_class_L1D    187468        49      2083      2483

@Sumon_Early_by_cycle_L1D     56189     19334      8529      3499      3013     17700     31945     45514     38750     20101      5172       811
@Sumon_Late_by_cycle_L1D     72334     20331     28798      4783     65799        38
@Sumon_Early_stream_L1D     54677     18174      7707      2786      2088      8464      8773     11392     13062      8486      1560       132
@Sumon_Early_CS_L1D       119       359       244       319       467      7178     20694     29874     19696      3953       256        83
@Sumon_Early_CPLX_L1D       718       549       461       328       400      1755      2234      4035      5830      7555      3328       596
@Sumon_Late_stream_L1D     70565     19814     27901      4657     64494        37
@Sumon_Late_CS_L1D        12         8         9         4        16         0
@Sumon_Late_CPLX_L1D       856       236       373        58       560         0
@sumon_overall_L2C     24153         2         0   1282141   1306694    249902    249902
@Sumon_Early_by_class_L2C     17827      3237      2660         0
@Sumon_Late_by_class_L2C         0         1         0         0

@Sumon_Early_by_cycle_L2C         4         5         2         2         3        24        85       120       161      1582      3042     19123
@Sumon_Late_by_cycle_L2C         0         0         1         0         1         0
@Sumon_Early_stream_L2C         0         0         0         0         0         0         0         0        89      1146      2291     14301
@Sumon_Early_CS_L2C         4         5         2         2         3        24        85       115        32        87       210      2668
@Sumon_Early_CPLX_L2C         0         0         0         0         0         0         0         3        30       300       472      1855
@Sumon_Late_stream_L2C         0         0         0         0         0         0
@Sumon_Late_CS_L2C         0         0         0         0         1         0
@Sumon_Late_CPLX_L2C         0         0         0         0         0         0
DRAM PAGES: 1048576
Allocated PAGES: 119987
