
*** ChampSim Multicore Out-of-Order Simulator ***

Warmup Instructions: 50000000
Simulation Instructions: 50000000
Number of CPUs: 1
LLC sets: 2048
LLC ways: 16
Off-chip DRAM Size: 4096 MB Channels: 1 Width: 64-bit Data Rate: 6400 MT/s
CPU 0 runs ../../biswa/SPEC2017Traces/619.lbm_s-4268B.champsimtrace.xz
.xz
CPU 0 Bimodal branch predictor
BTB has LRU replacement policy
ITLB has LRU replacement policy
DTLB has LRU replacement policy
STLB has LRU replacement policy
L1I has LRU replacement policy
IP Table Entries: 256
L1D has LRU replacement policy
IP_Table L2 entries: 256
Initialize DRRIP state for L2C
epoch: 1000
next table: 2673
cur table: 11531
epoch: 1000
next table: 2459
cur table: 2673
epoch: 1000
next table: 2439
cur table: 2459
epoch: 1000
next table: 2408
cur table: 2439
epoch: 1000
next table: 2409
cur table: 2408
epoch: 1000
next table: 2351
cur table: 2409
epoch: 1000
next table: 2390
cur table: 2351
epoch: 1000
next table: 2408
cur table: 2390
epoch: 1000
next table: 2412
cur table: 2408
epoch: 1000
next table: 2410
cur table: 2412
epoch: 1000
next table: 2425
cur table: 2410
epoch: 1000
next table: 2395
cur table: 2425
epoch: 1000
next table: 2393
cur table: 2395
epoch: 1000
next table: 2399
cur table: 2393
epoch: 1000
next table: 2391
cur table: 2399
epoch: 1000
next table: 2414
cur table: 2391
epoch: 1000
next table: 2417
cur table: 2414
epoch: 1000
next table: 2406
cur table: 2417
epoch: 1000
next table: 2401
cur table: 2406
epoch: 1000
next table: 2413
cur table: 2401
epoch: 1000
next table: 2402
cur table: 2413
epoch: 1000
next table: 2397
cur table: 2402
epoch: 1000
next table: 2401
cur table: 2397
epoch: 1000
next table: 2382
cur table: 2401
epoch: 1000
next table: 2399
cur table: 2382
epoch: 1000
next table: 2109
cur table: 26839
epoch: 1000
next table: 2387
cur table: 2399
epoch: 1000
next table: 1797
cur table: 2109
epoch: 1000
next table: 2376
cur table: 2387
epoch: 1000
next table: 1856
cur table: 1797
epoch: 1000
next table: 2424
cur table: 2376
epoch: 1000
next table: 1770
cur table: 1856
epoch: 1000
next table: 2424
cur table: 2424
epoch: 1000
next table: 2431
cur table: 2424
epoch: 1000
next table: 1785
cur table: 1770
epoch: 1000
next table: 2409
cur table: 2431
epoch: 1000
next table: 1761
cur table: 1785
epoch: 1000
next table: 2398
cur table: 2409
epoch: 1000
next table: 1757
cur table: 1761
epoch: 1000
next table: 2378
cur table: 2398
epoch: 1000
next table: 1780
cur table: 1757
epoch: 1000
next table: 2407
cur table: 2378
epoch: 1000
next table: 1766
cur table: 1780
epoch: 1000
next table: 2408
cur table: 2407
epoch: 1000
next table: 1770
cur table: 1766
epoch: 1000
next table: 2414
cur table: 2408
epoch: 1000
next table: 1758
cur table: 1770
epoch: 1000
next table: 2426
cur table: 2414
epoch: 1000
next table: 1761
cur table: 1758
epoch: 1000
next table: 2431
cur table: 2426
epoch: 1000
next table: 1756
cur table: 1761
epoch: 1000
next table: 2382
cur table: 2431
epoch: 1000
next table: 1780
cur table: 1756
epoch: 1000
next table: 2395
cur table: 2382
epoch: 1000
next table: 1767
cur table: 1780
epoch: 1000
next table: 2357
cur table: 2395
epoch: 1000
next table: 1807
cur table: 1767
epoch: 1000
next table: 2394
cur table: 2357
epoch: 1000
next table: 1791
cur table: 1807
epoch: 1000
next table: 2397
cur table: 2394
epoch: 1000
next table: 1771
cur table: 1791
epoch: 1000
next table: 2395
cur table: 2397
epoch: 1000
next table: 1761
cur table: 1771
epoch: 1000
next table: 2368
cur table: 2395
epoch: 1000
next table: 1790
cur table: 1761
epoch: 1000
next table: 2413
cur table: 2368
epoch: 1000
next table: 1775
cur table: 1790
epoch: 1000
next table: 2401
cur table: 2413
epoch: 1000
next table: 1762
cur table: 1775
epoch: 1000
next table: 2411
cur table: 2401
epoch: 1000
next table: 1774
cur table: 1762
epoch: 1000
next table: 2413
cur table: 2411
epoch: 1000
next table: 1789
cur table: 1774
epoch: 1000
next table: 2360
cur table: 2413
epoch: 1000
next table: 1786
cur table: 1789
epoch: 1000
next table: 2398
cur table: 2360
epoch: 1000
next table: 1772
cur table: 1786
epoch: 1000
next table: 2394
cur table: 2398
epoch: 1000
next table: 1762
cur table: 1772
epoch: 1000
next table: 2433
cur table: 2394
epoch: 1000
next table: 1762
cur table: 1762
epoch: 1000
next table: 2400
cur table: 2433
epoch: 1000
next table: 1774
cur table: 1762
epoch: 1000
next table: 2431
cur table: 2400
epoch: 1000
next table: 1759
cur table: 1774
epoch: 1000
next table: 2431
cur table: 2431
epoch: 1000
next table: 1771
cur table: 1759
epoch: 1000
next table: 2404
cur table: 2431
epoch: 1000
next table: 1751
cur table: 1771
epoch: 1000
next table: 2406
cur table: 2404
epoch: 1000
next table: 1767
cur table: 1751
epoch: 1000
next table: 2413
cur table: 2406
epoch: 1000
next table: 1768
cur table: 1767
epoch: 1000
next table: 2400
cur table: 2413
epoch: 1000
next table: 1775
cur table: 1768
epoch: 1000
next table: 2388
cur table: 2400
epoch: 1000
next table: 1783
cur table: 1775
epoch: 1000
next table: 2414
cur table: 2388
epoch: 1000
next table: 1756
cur table: 1783
epoch: 1000
next table: 2421
cur table: 2414
epoch: 1000
next table: 1777
cur table: 1756
epoch: 1000
next table: 2394
cur table: 2421
epoch: 1000
next table: 1765
cur table: 1777
epoch: 1000
next table: 2405
cur table: 2394
epoch: 1000
next table: 1769
cur table: 1765
epoch: 1000
next table: 2405
cur table: 2405
epoch: 1000
next table: 1765
cur table: 1769
epoch: 1000
next table: 2407
cur table: 2405
epoch: 1000
next table: 1768
cur table: 1765
epoch: 1000
next table: 2418
cur table: 2407
epoch: 1000
next table: 1764
cur table: 1768
epoch: 1000
next table: 2406
cur table: 2418
epoch: 1000
next table: 1772
cur table: 1764
epoch: 1000
next table: 2419
cur table: 2406
epoch: 1000
next table: 1783
cur table: 1772
epoch: 1000
next table: 2411
cur table: 2419
epoch: 1000
next table: 1761
cur table: 1783
epoch: 1000
next table: 2400
cur table: 2411
epoch: 1000
next table: 1754
cur table: 1761
epoch: 1000
next table: 2409
cur table: 2400
epoch: 1000
next table: 1756
cur table: 1754
epoch: 1000
next table: 2422
cur table: 2409
epoch: 1000
next table: 1762
cur table: 1756
epoch: 1000
next table: 2404
cur table: 2422
epoch: 1000
next table: 1858
cur table: 1762
epoch: 1000
next table: 2402
cur table: 2404
epoch: 1000
next table: 1861
cur table: 1858
epoch: 1000
next table: 2410
cur table: 2402
epoch: 1000
next table: 2411
cur table: 2410
epoch: 1000
next table: 2098
cur table: 1861
epoch: 1000
next table: 2414
cur table: 2411
epoch: 1000
next table: 2144
cur table: 2098
epoch: 1000
next table: 2407
cur table: 2414
epoch: 1000
next table: 2415
cur table: 2407
epoch: 1000
next table: 2205
cur table: 2144
epoch: 1000
next table: 2412
cur table: 2415
epoch: 1000
next table: 2185
cur table: 2205
epoch: 1000
next table: 2417
cur table: 2412
epoch: 1000
next table: 2409
cur table: 2417
epoch: 1000
next table: 2201
cur table: 2185
epoch: 1000
next table: 2435
cur table: 2409
epoch: 1000
next table: 2422
cur table: 2435
epoch: 1000
next table: 2187
cur table: 2201
epoch: 1000
next table: 2433
cur table: 2422
epoch: 1000
next table: 2213
cur table: 2187
epoch: 1000
next table: 2425
cur table: 2433
epoch: 1000
next table: 2410
cur table: 2425
epoch: 1000
next table: 2195
cur table: 2213
epoch: 1000
next table: 2409
cur table: 2410
epoch: 1000
next table: 2242
cur table: 2195
epoch: 1000
next table: 2418
cur table: 2409
epoch: 1000
next table: 2436
cur table: 2418
epoch: 1000
next table: 2205
cur table: 2242
epoch: 1000
next table: 2423
cur table: 2436
epoch: 1000
next table: 2406
cur table: 2423
epoch: 1000
next table: 2342
cur table: 2205
epoch: 1000
next table: 2407
cur table: 2406
epoch: 1000
next table: 2394
cur table: 2407
epoch: 1000
next table: 2470
cur table: 2342
epoch: 1000
next table: 2369
cur table: 2394
epoch: 1000
next table: 2373
cur table: 2369
epoch: 1000
next table: 2525
cur table: 2470
epoch: 1000
next table: 2368
cur table: 2373
epoch: 1000
next table: 2366
cur table: 2368
epoch: 1000
next table: 2565
cur table: 2525
epoch: 1000
next table: 2393
cur table: 2366
epoch: 1000
next table: 2394
cur table: 2393
epoch: 1000
next table: 2564
cur table: 2565
epoch: 1000
next table: 2348
cur table: 2394
epoch: 1000
next table: 2372
cur table: 2348
epoch: 1000
next table: 2739
cur table: 2564
epoch: 1000
next table: 2429
cur table: 2372
epoch: 1000
next table: 2401
cur table: 2429
epoch: 1000
next table: 2656
cur table: 2739
epoch: 1000
next table: 2415
cur table: 2401
epoch: 1000
next table: 2403
cur table: 2415
epoch: 1000
next table: 2690
cur table: 2656
epoch: 1000
next table: 2392
cur table: 2403
epoch: 1000
next table: 2394
cur table: 2392
epoch: 1000
next table: 2402
cur table: 2394
epoch: 1000
next table: 2674
cur table: 2690
epoch: 1000
next table: 2407
cur table: 2402
epoch: 1000
next table: 2384
cur table: 2407
epoch: 1000
next table: 2667
cur table: 2674
epoch: 1000
next table: 2412
cur table: 2384
epoch: 1000
next table: 2388
cur table: 2412
epoch: 1000
next table: 2663
cur table: 2667
epoch: 1000
next table: 2415
cur table: 2388
epoch: 1000
next table: 2402
cur table: 2415
epoch: 1000
next table: 2689
cur table: 2663
epoch: 1000
next table: 2384
cur table: 2402
epoch: 1000
next table: 2370
cur table: 2384
epoch: 1000
next table: 2737
cur table: 2689
epoch: 1000
next table: 2367
cur table: 2370
epoch: 1000
next table: 2413
cur table: 2367
epoch: 1000
next table: 2395
cur table: 2413
epoch: 1000
next table: 2653
cur table: 2737
epoch: 1000
next table: 2377
cur table: 2395
epoch: 1000
next table: 2355
cur table: 2377
epoch: 1000
next table: 2795
cur table: 2653
epoch: 1000
next table: 2374
cur table: 2355
epoch: 1000
next table: 2392
cur table: 2374
epoch: 1000
next table: 2806
cur table: 2795
epoch: 1000
next table: 2392
cur table: 2392
epoch: 1000
next table: 2347
cur table: 2392
epoch: 1000
next table: 2384
cur table: 2347
epoch: 1000
next table: 2833
cur table: 2806
epoch: 1000
next table: 2416
cur table: 2384
epoch: 1000
next table: 2422
cur table: 2416
epoch: 1000
next table: 2790
cur table: 2833
epoch: 1000
next table: 2417
cur table: 2422
epoch: 1000
next table: 2418
cur table: 2417
epoch: 1000
next table: 2801
cur table: 2790
epoch: 1000
next table: 2415
cur table: 2418
epoch: 1000
next table: 2401
cur table: 2415
epoch: 1000
next table: 2404
cur table: 2401
epoch: 1000
next table: 2764
cur table: 2801
epoch: 1000
next table: 2404
cur table: 2404
epoch: 1000
next table: 2428
cur table: 2404
epoch: 1000
next table: 2779
cur table: 2764
epoch: 1000
next table: 2398
cur table: 2428
epoch: 1000
next table: 2407
cur table: 2398
epoch: 1000
next table: 2795
cur table: 2779
epoch: 1000
next table: 2428
cur table: 2407
epoch: 1000
next table: 2414
cur table: 2428
epoch: 1000
next table: 2402
cur table: 2414
epoch: 1000
next table: 2749
cur table: 2795
epoch: 1000
next table: 2412
cur table: 2402
epoch: 1000
next table: 2411
cur table: 2412
epoch: 1000
next table: 2704
cur table: 2749
epoch: 1000
next table: 2419
cur table: 2411
epoch: 1000
next table: 2420
cur table: 2419
epoch: 1000
next table: 2712
cur table: 2704
epoch: 1000
next table: 2422
cur table: 2420
epoch: 1000
next table: 2427
cur table: 2422
epoch: 1000
next table: 2422
cur table: 2427
epoch: 1000
next table: 2826
cur table: 2712
epoch: 1000
next table: 2434
cur table: 2422
epoch: 1000
next table: 2400
cur table: 2434
epoch: 1000
next table: 2880
cur table: 2826
epoch: 1000
next table: 2411
cur table: 2400
epoch: 1000
next table: 2421
cur table: 2411
epoch: 1000
next table: 2747
cur table: 2880
epoch: 1000
next table: 2429
cur table: 2421
epoch: 1000
next table: 2413
cur table: 2429
epoch: 1000
next table: 2423
cur table: 2413
epoch: 1000
next table: 2716
cur table: 2747
epoch: 1000
next table: 2411
cur table: 2423
epoch: 1000
next table: 2433
cur table: 2411
epoch: 1000
next table: 2791
cur table: 2716
epoch: 1000
next table: 2388
cur table: 2433
epoch: 1000
next table: 2397
cur table: 2388
epoch: 1000
next table: 2763
cur table: 2791
epoch: 1000
next table: 2381
cur table: 2397
epoch: 1000
next table: 2417
cur table: 2381
epoch: 1000
next table: 2390
cur table: 2417
epoch: 1000
next table: 2844
cur table: 2763
epoch: 1000
next table: 2423
cur table: 2390
epoch: 1000
next table: 2419
cur table: 2423
epoch: 1000
next table: 2835
cur table: 2844
epoch: 1000
next table: 2415
cur table: 2419
epoch: 1000
next table: 2409
cur table: 2415
epoch: 1000
next table: 2402
cur table: 2409
epoch: 1000
next table: 2754
cur table: 2835
epoch: 1000
next table: 2418
cur table: 2402
epoch: 1000
next table: 2417
cur table: 2418
epoch: 1000
next table: 2844
cur table: 2754
epoch: 1000
next table: 2414
cur table: 2417
epoch: 1000
next table: 2410
cur table: 2414
epoch: 1000
next table: 2893
cur table: 2844
epoch: 1000
next table: 2437
cur table: 2410
epoch: 1000
next table: 2425
cur table: 2437
epoch: 1000
next table: 2387
cur table: 2425
epoch: 1000
next table: 2911
cur table: 2893
epoch: 1000
next table: 2390
cur table: 2387
epoch: 1000
next table: 2403
cur table: 2390
epoch: 1000
next table: 2835
cur table: 2911
epoch: 1000
next table: 2401
cur table: 2403
epoch: 1000
next table: 2398
cur table: 2401
epoch: 1000
next table: 2396
cur table: 2398
epoch: 1000
next table: 2926
cur table: 2835
epoch: 1000
next table: 2361
cur table: 2396
epoch: 1000
next table: 2369
cur table: 2361
epoch: 1000
next table: 2375
cur table: 2369
epoch: 1000
next table: 3004
cur table: 2926
epoch: 1000
next table: 2416
cur table: 2375
epoch: 1000
next table: 2427
cur table: 2416
epoch: 1000
next table: 3059
cur table: 3004
epoch: 1000
next table: 2426
cur table: 2427
epoch: 1000
next table: 2403
cur table: 2426
epoch: 1000
next table: 2385
cur table: 2403
epoch: 1000
next table: 3040
cur table: 3059
epoch: 1000
next table: 2406
cur table: 2385
epoch: 1000
next table: 2390
cur table: 2406
epoch: 1000
next table: 2381
cur table: 2390
epoch: 1000
next table: 2972
cur table: 3040
epoch: 1000
next table: 2380
cur table: 2381
epoch: 1000
next table: 2371
cur table: 2380
epoch: 1000
next table: 2915
cur table: 2972
epoch: 1000
next table: 2388
cur table: 2371
epoch: 1000
next table: 2390
cur table: 2388
epoch: 1000
next table: 2406
cur table: 2390
epoch: 1000
next table: 2976
cur table: 2915
epoch: 1000
next table: 2420
cur table: 2406
epoch: 1000
next table: 2421
cur table: 2420
epoch: 1000
next table: 2935
cur table: 2976
epoch: 1000
next table: 2390
cur table: 2421
epoch: 1000
next table: 2400
cur table: 2390
epoch: 1000
next table: 2405
cur table: 2400
epoch: 1000
next table: 3082
cur table: 2935
epoch: 1000
next table: 2389
cur table: 2405
epoch: 1000
next table: 2394
cur table: 2389
epoch: 1000
next table: 2422
cur table: 2394
epoch: 1000
next table: 3046
cur table: 3082
epoch: 1000
next table: 2405
cur table: 2422
epoch: 1000
next table: 2410
cur table: 2405
epoch: 1000
next table: 3194
cur table: 3046
epoch: 1000
next table: 2413
cur table: 2410
epoch: 1000
next table: 2410
cur table: 2413
epoch: 1000
next table: 2424
cur table: 2410
epoch: 1000
next table: 3052
cur table: 3194
epoch: 1000
next table: 2435
cur table: 2424
epoch: 1000
next table: 2415
cur table: 2435
epoch: 1000
next table: 2422
cur table: 2415
epoch: 1000
next table: 2984
cur table: 3052
epoch: 1000
next table: 2423
cur table: 2422
epoch: 1000
next table: 2368
cur table: 2423
epoch: 1000
next table: 3003
cur table: 2984
epoch: 1000
next table: 2380
cur table: 2368
epoch: 1000
next table: 2397
cur table: 2380
epoch: 1000
next table: 2359
cur table: 2397
epoch: 1000
next table: 3047
cur table: 3003
epoch: 1000
next table: 2427
cur table: 2359
epoch: 1000
next table: 2401
cur table: 2427
epoch: 1000
next table: 2412
cur table: 2401
epoch: 1000
next table: 2995
cur table: 3047
epoch: 1000
next table: 2407
cur table: 2412
epoch: 1000
next table: 2419
cur table: 2407
epoch: 1000
next table: 3031
cur table: 2995
epoch: 1000
next table: 2420
cur table: 2419
epoch: 1000
next table: 2413
cur table: 2420
epoch: 1000
next table: 2426
cur table: 2413
epoch: 1000
next table: 3052
cur table: 3031
epoch: 1000
next table: 2403
cur table: 2426
epoch: 1000
next table: 2362
cur table: 2403
epoch: 1000
next table: 2353
cur table: 2362
epoch: 1000
next table: 3142
cur table: 3052
epoch: 1000
next table: 2403
cur table: 2353
epoch: 1000
next table: 2401
cur table: 2403
epoch: 1000
next table: 2407
cur table: 2401
epoch: 1000
next table: 3230
cur table: 3142
epoch: 1000
next table: 2368
cur table: 2407
epoch: 1000
next table: 2389
cur table: 2368
epoch: 1000
next table: 2388
cur table: 2389
epoch: 1000
next table: 3228
cur table: 3230
epoch: 1000
next table: 2397
cur table: 2388
epoch: 1000
next table: 2383
cur table: 2397
epoch: 1000
next table: 3096
cur table: 3228
epoch: 1000
next table: 2421
cur table: 2383
epoch: 1000
next table: 2393
cur table: 2421
epoch: 1000
next table: 2403
cur table: 2393
epoch: 1000
next table: 3036
cur table: 3096
epoch: 1000
next table: 2386
cur table: 2403
epoch: 1000
next table: 2380
cur table: 2386
epoch: 1000
next table: 2398
cur table: 2380
epoch: 1000
next table: 3301
cur table: 3036
epoch: 1000
next table: 2367
cur table: 2398
epoch: 1000
next table: 2389
cur table: 2367
epoch: 1000
next table: 2401
cur table: 2389
epoch: 1000
next table: 3190
cur table: 3301
epoch: 1000
next table: 2399
cur table: 2401
epoch: 1000
next table: 2403
cur table: 2399
epoch: 1000
next table: 2422
cur table: 2403
epoch: 1000
next table: 3237
cur table: 3190
epoch: 1000
next table: 2423
cur table: 2422
epoch: 1000
next table: 2390
cur table: 2423
epoch: 1000
next table: 2410
cur table: 2390
epoch: 1000
next table: 3201
cur table: 3237
epoch: 1000
next table: 2404
cur table: 2410
epoch: 1000
next table: 2422
cur table: 2404
epoch: 1000
next table: 2402
cur table: 2422
epoch: 1000
next table: 3201
cur table: 3201
epoch: 1000
next table: 2425
cur table: 2402
epoch: 1000
next table: 2423
cur table: 2425
epoch: 1000
next table: 2418
cur table: 2423
epoch: 1000
next table: 3210
cur table: 3201
epoch: 1000
next table: 2411
cur table: 2418
epoch: 1000
next table: 2408
cur table: 2411
epoch: 1000
next table: 2410
cur table: 2408
epoch: 1000
next table: 3296
cur table: 3210
epoch: 1000
next table: 2423
cur table: 2410
epoch: 1000
next table: 2434
cur table: 2423
epoch: 1000
next table: 2407
cur table: 2434
epoch: 1000
next table: 3317
cur table: 3296
epoch: 1000
next table: 2433
cur table: 2407
epoch: 1000
next table: 2417
cur table: 2433
epoch: 1000
next table: 2443
cur table: 2417
epoch: 1000
next table: 3336
cur table: 3317
epoch: 1000
next table: 2408
cur table: 2443
epoch: 1000
next table: 2407
cur table: 2408
epoch: 1000
next table: 2415
cur table: 2407
epoch: 1000
next table: 3594
cur table: 3336
epoch: 1000
next table: 2425
cur table: 2415
epoch: 1000
next table: 2414
cur table: 2425
epoch: 1000
next table: 2419
cur table: 2414
epoch: 1000
next table: 2423
cur table: 2419
epoch: 1000
next table: 3912
cur table: 3594
epoch: 1000
next table: 2419
cur table: 2423
epoch: 1000
next table: 2433
cur table: 2419
epoch: 1000
next table: 2380
cur table: 2433
epoch: 1000
next table: 2355
cur table: 2380
epoch: 1000
next table: 2306
cur table: 2355
epoch: 1000
next table: 2329
cur table: 2306
epoch: 1000
next table: 2343
cur table: 2329
epoch: 1000
next table: 6163
cur table: 3912
epoch: 1000
next table: 2413
cur table: 2343
epoch: 1000
next table: 2405
cur table: 2413
epoch: 1000
next table: 2415
cur table: 2405
epoch: 1000
next table: 2379
cur table: 2415
epoch: 1000
next table: 2377
cur table: 2379
epoch: 1000
next table: 2394
cur table: 2377
epoch: 1000
next table: 2388
cur table: 2394
epoch: 1000
next table: 2361
cur table: 2388
epoch: 1000
next table: 2312
cur table: 2361
epoch: 1000
next table: 2378
cur table: 2312
epoch: 1000
next table: 2386
cur table: 2378
epoch: 1000
next table: 9337
cur table: 6163
epoch: 1000
next table: 2390
cur table: 2386
epoch: 1000
next table: 2337
cur table: 2390
epoch: 1000
next table: 2340
cur table: 2337
epoch: 1000
next table: 2397
cur table: 2340
epoch: 1000
next table: 2423
cur table: 2397
epoch: 1000
next table: 2424
cur table: 2423
epoch: 1000
next table: 2396
cur table: 2424
epoch: 1000
next table: 6367
cur table: 9337
epoch: 1000
next table: 2355
cur table: 2396
epoch: 1000
next table: 2331
cur table: 2355
epoch: 1000
next table: 2361
cur table: 2331
epoch: 1000
next table: 2354
cur table: 2361
epoch: 1000
next table: 2376
cur table: 2354
epoch: 1000
next table: 2368
cur table: 2376
epoch: 1000
next table: 6106
cur table: 6367
epoch: 1000
next table: 2430
cur table: 2368
epoch: 1000
next table: 2385
cur table: 2430
epoch: 1000
next table: 2394
cur table: 2385
epoch: 1000
next table: 2393
cur table: 2394
epoch: 1000
next table: 2417
cur table: 2393
epoch: 1000
next table: 2410
cur table: 2417
epoch: 1000
next table: 2426
cur table: 2410
epoch: 1000
next table: 5933
cur table: 6106
epoch: 1000
next table: 2407
cur table: 2426
epoch: 1000
next table: 2434
cur table: 2407
epoch: 1000
next table: 2404
cur table: 2434
epoch: 1000
next table: 2407
cur table: 2404
epoch: 1000
next table: 2406
cur table: 2407
epoch: 1000
next table: 2383
cur table: 2406
epoch: 1000
next table: 2405
cur table: 2383
epoch: 1000
next table: 2400
cur table: 2405
epoch: 1000
next table: 6800
cur table: 5933
epoch: 1000
next table: 2374
cur table: 2400
epoch: 1000
next table: 2368
cur table: 2374
epoch: 1000
next table: 2397
cur table: 2368
epoch: 1000
next table: 2395
cur table: 2397
epoch: 1000
next table: 2404
cur table: 2395
epoch: 1000
next table: 2367
cur table: 2404
epoch: 1000
next table: 2352
cur table: 2367
epoch: 1000
next table: 2376
cur table: 2352
epoch: 1000
next table: 2401
cur table: 2376
epoch: 1000
next table: 8367
cur table: 6800
epoch: 1000
next table: 2403
cur table: 2401
epoch: 1000
next table: 2380
cur table: 2403
epoch: 1000
next table: 2398
cur table: 2380
epoch: 1000
next table: 2412
cur table: 2398
epoch: 1000
next table: 2423
cur table: 2412
epoch: 1000
next table: 2420
cur table: 2423
epoch: 1000
next table: 2410
cur table: 2420
epoch: 1000
next table: 6129
cur table: 8367
epoch: 1000
next table: 2414
cur table: 2410
epoch: 1000
next table: 2399
cur table: 2414
epoch: 1000
next table: 2389
cur table: 2399
epoch: 1000
next table: 2395
cur table: 2389
epoch: 1000
next table: 2415
cur table: 2395
epoch: 1000
next table: 2403
cur table: 2415
epoch: 1000
next table: 2407
cur table: 2403
epoch: 1000
next table: 2414
cur table: 2407
epoch: 1000
next table: 2425
cur table: 2414
epoch: 1000
next table: 2407
cur table: 2425
epoch: 1000
next table: 2416
cur table: 2407
epoch: 1000
next table: 9463
cur table: 6129
epoch: 1000
next table: 2416
cur table: 2416
epoch: 1000
next table: 2433
cur table: 2416
epoch: 1000
next table: 2396
cur table: 2433
epoch: 1000
next table: 2421
cur table: 2396
epoch: 1000
next table: 2425
cur table: 2421
epoch: 1000
next table: 2416
cur table: 2425
epoch: 1000
next table: 2419
cur table: 2416
epoch: 1000
next table: 2412
cur table: 2419
epoch: 1000
next table: 2411
cur table: 2412
epoch: 1000
next table: 2420
cur table: 2411
epoch: 1000
next table: 2427
cur table: 2420
epoch: 1000
next table: 2421
cur table: 2427
epoch: 1000
next table: 2401
cur table: 2421
epoch: 1000
next table: 2404
cur table: 2401
epoch: 1000
next table: 2395
cur table: 2404
epoch: 1000
next table: 2383
cur table: 2395
epoch: 1000
next table: 2394
cur table: 2383
epoch: 1000
next table: 2411
cur table: 2394
epoch: 1000
next table: 2405
cur table: 2411
epoch: 1000
next table: 2409
cur table: 2405
epoch: 1000
next table: 2404
cur table: 2409
epoch: 1000
next table: 2378
cur table: 2404
epoch: 1000
next table: 2381
cur table: 2378
epoch: 1000
next table: 2406
cur table: 2381
epoch: 1000
next table: 2411
cur table: 2406
epoch: 1000
next table: 2412
cur table: 2411
epoch: 1000
next table: 2425
cur table: 2412
epoch: 1000
next table: 2420
cur table: 2425
epoch: 1000
next table: 2403
cur table: 2420
epoch: 1000
next table: 2413
cur table: 2403
epoch: 1000
next table: 2417
cur table: 2413
epoch: 1000
next table: 2412
cur table: 2417
epoch: 1000
next table: 2425
cur table: 2412
epoch: 1000
next table: 2409
cur table: 2425
epoch: 1000
next table: 2438
cur table: 2409
epoch: 1000
next table: 2424
cur table: 2438
epoch: 1000
next table: 2429
cur table: 2424
epoch: 1000
next table: 2413
cur table: 2429
epoch: 1000
next table: 2410
cur table: 2413
epoch: 1000
next table: 2410
cur table: 2410
epoch: 1000
next table: 2429
cur table: 2410
epoch: 1000
next table: 2415
cur table: 2429
epoch: 1000
next table: 2418
cur table: 2415
epoch: 1000
next table: 2416
cur table: 2418
epoch: 1000
next table: 2423
cur table: 2416
epoch: 1000
next table: 2439
cur table: 2423
epoch: 1000
next table: 2424
cur table: 2439
epoch: 1000
next table: 2398
cur table: 2424
epoch: 1000
next table: 2379
cur table: 2398
epoch: 1000
next table: 2391
cur table: 2379
epoch: 1000
next table: 2415
cur table: 2391
epoch: 1000
next table: 2393
cur table: 2415
epoch: 1000
next table: 2380
cur table: 2393
epoch: 1000
next table: 2353
cur table: 2380
epoch: 1000
next table: 2392
cur table: 2353
epoch: 1000
next table: 2390
cur table: 2392
epoch: 1000
next table: 2383
cur table: 2390
epoch: 1000
next table: 2358
cur table: 2383
epoch: 1000
next table: 2391
cur table: 2358
epoch: 1000
next table: 2400
cur table: 2391
epoch: 1000
next table: 2395
cur table: 2400
epoch: 1000
next table: 2409
cur table: 2395
epoch: 1000
next table: 2383
cur table: 2409
epoch: 1000
next table: 2376
cur table: 2383
epoch: 1000
next table: 2350
cur table: 2376
epoch: 1000
next table: 2367
cur table: 2350
epoch: 1000
next table: 2395
cur table: 2367
epoch: 1000
next table: 2320
cur table: 2395
epoch: 1000
next table: 2360
cur table: 2320
epoch: 1000
next table: 2361
cur table: 2360
epoch: 1000
next table: 2380
cur table: 2361
epoch: 1000
next table: 2350
cur table: 2380
epoch: 1000
next table: 2399
cur table: 2350
epoch: 1000
next table: 2402
cur table: 2399
epoch: 1000
next table: 2399
cur table: 2402
epoch: 1000
next table: 2390
cur table: 2399
epoch: 1000
next table: 2337
cur table: 2390
epoch: 1000
next table: 2352
cur table: 2337
epoch: 1000
next table: 2360
cur table: 2352
epoch: 1000
next table: 2342
cur table: 2360
epoch: 1000
next table: 2354
cur table: 2342
epoch: 1000
next table: 2357
cur table: 2354
epoch: 1000
next table: 2360
cur table: 2357
epoch: 1000
next table: 2384
cur table: 2360
epoch: 1000
next table: 2357
cur table: 2384
epoch: 1000
next table: 2371
cur table: 2357
epoch: 1000
next table: 2405
cur table: 2371
epoch: 1000
next table: 2358
cur table: 2405
epoch: 1000
next table: 2381
cur table: 2358
epoch: 1000
next table: 2359
cur table: 2381
epoch: 1000
next table: 2406
cur table: 2359
epoch: 1000
next table: 2385
cur table: 2406
epoch: 1000
next table: 2372
cur table: 2385
epoch: 1000
next table: 2376
cur table: 2372
epoch: 1000
next table: 2377
cur table: 2376
epoch: 1000
next table: 2387
cur table: 2377
epoch: 1000
next table: 2366
cur table: 2387
epoch: 1000
next table: 2309
cur table: 2366
epoch: 1000
next table: 2359
cur table: 2309
epoch: 1000
next table: 2400
cur table: 2359
epoch: 1000
next table: 2301
cur table: 2400
epoch: 1000
next table: 2359
cur table: 2301
epoch: 1000
next table: 2373
cur table: 2359
epoch: 1000
next table: 2380
cur table: 2373
epoch: 1000
next table: 2328
cur table: 2380
epoch: 1000
next table: 2366
cur table: 2328
epoch: 1000
next table: 2368
cur table: 2366
epoch: 1000
next table: 2313
cur table: 2368
epoch: 1000
next table: 2405
cur table: 2313
epoch: 1000
next table: 2346
cur table: 2405
epoch: 1000
next table: 2403
cur table: 2346
epoch: 1000
next table: 2285
cur table: 2403
epoch: 1000
next table: 2363
cur table: 2285
epoch: 1000
next table: 2318
cur table: 2363
epoch: 1000
next table: 2242
cur table: 2318
epoch: 1000
next table: 2355
cur table: 2242
epoch: 1000
next table: 2328
cur table: 2355
epoch: 1000
next table: 2396
cur table: 2328
epoch: 1000
next table: 2365
cur table: 2396
epoch: 1000
next table: 2399
cur table: 2365
epoch: 1000
next table: 2408
cur table: 2399
epoch: 1000
next table: 2377
cur table: 2408
epoch: 1000
next table: 2338
cur table: 2377
epoch: 1000
next table: 2361
cur table: 2338
Heartbeat CPU 0 instructions: 10000000 cycles: 2904643 heartbeat IPC: 3.44276 cumulative IPC: 3.44276 (Simulation time: 0 hr 5 min 19 sec) 
epoch: 1000
next table: 2341
cur table: 2361
epoch: 1000
next table: 2313
cur table: 2341
epoch: 1000
next table: 2355
cur table: 2313
epoch: 1000
next table: 2358
cur table: 2355
epoch: 1000
next table: 2283
cur table: 2358
epoch: 1000
next table: 2381
cur table: 2283
epoch: 1000
next table: 2369
cur table: 2381
epoch: 1000
next table: 2342
cur table: 2369
epoch: 1000
next table: 2374
cur table: 2342
epoch: 1000
next table: 2339
cur table: 2374
epoch: 1000
next table: 2337
cur table: 2339
epoch: 1000
next table: 2398
cur table: 2337
epoch: 1000
next table: 2381
cur table: 2398
epoch: 1000
next table: 2348
cur table: 2381
epoch: 1000
next table: 2313
cur table: 2348
epoch: 1000
next table: 2363
cur table: 2313
epoch: 1000
next table: 2359
cur table: 2363
epoch: 1000
next table: 2341
cur table: 2359
epoch: 1000
next table: 2342
cur table: 2341
epoch: 1000
next table: 2360
cur table: 2342
epoch: 1000
next table: 2378
cur table: 2360
epoch: 1000
next table: 2371
cur table: 2378
epoch: 1000
next table: 2343
cur table: 2371
epoch: 1000
next table: 2403
cur table: 2343
epoch: 1000
next table: 2383
cur table: 2403
epoch: 1000
next table: 2327
cur table: 2383
epoch: 1000
next table: 2320
cur table: 2327
epoch: 1000
next table: 2351
cur table: 2320
epoch: 1000
next table: 2357
cur table: 2351
epoch: 1000
next table: 2394
cur table: 2357
epoch: 1000
next table: 2392
cur table: 2394
epoch: 1000
next table: 2380
cur table: 2392
epoch: 1000
next table: 2393
cur table: 2380
epoch: 1000
next table: 2337
cur table: 2393
epoch: 1000
next table: 2382
cur table: 2337
epoch: 1000
next table: 2387
cur table: 2382
epoch: 1000
next table: 2399
cur table: 2387
epoch: 1000
next table: 2411
cur table: 2399
epoch: 1000
next table: 2381
cur table: 2411
epoch: 1000
next table: 2382
cur table: 2381
epoch: 1000
next table: 2387
cur table: 2382
epoch: 1000
next table: 2408
cur table: 2387
epoch: 1000
next table: 2405
cur table: 2408
epoch: 1000
next table: 2364
cur table: 2405
epoch: 1000
next table: 2366
cur table: 2364
epoch: 1000
next table: 2396
cur table: 2366
epoch: 1000
next table: 2393
cur table: 2396
epoch: 1000
next table: 2391
cur table: 2393
epoch: 1000
next table: 2347
cur table: 2391
epoch: 1000
next table: 2339
cur table: 2347
epoch: 1000
next table: 2378
cur table: 2339
epoch: 1000
next table: 2376
cur table: 2378
epoch: 1000
next table: 2357
cur table: 2376
epoch: 1000
next table: 2339
cur table: 2357
epoch: 1000
next table: 2360
cur table: 2339
epoch: 1000
next table: 2393
cur table: 2360
epoch: 1000
next table: 2345
cur table: 2393
epoch: 1000
next table: 2375
cur table: 2345
epoch: 1000
next table: 2396
cur table: 2375
epoch: 1000
next table: 2388
cur table: 2396
epoch: 1000
next table: 2340
cur table: 2388
epoch: 1000
next table: 2351
cur table: 2340
epoch: 1000
next table: 2361
cur table: 2351
epoch: 1000
next table: 2378
cur table: 2361
epoch: 1000
next table: 2303
cur table: 2378
epoch: 1000
next table: 2393
cur table: 2303
epoch: 1000
next table: 2364
cur table: 2393
epoch: 1000
next table: 2325
cur table: 2364
epoch: 1000
next table: 2283
cur table: 2325
epoch: 1000
next table: 2361
cur table: 2283
epoch: 1000
next table: 2306
cur table: 2361
epoch: 1000
next table: 2337
cur table: 2306
epoch: 1000
next table: 2389
cur table: 2337
epoch: 1000
next table: 2336
cur table: 2389
epoch: 1000
next table: 2352
cur table: 2336
epoch: 1000
next table: 2357
cur table: 2352
epoch: 1000
next table: 2388
cur table: 2357
epoch: 1000
next table: 2317
cur table: 2388
epoch: 1000
next table: 2369
cur table: 2317
epoch: 1000
next table: 2363
cur table: 2369
epoch: 1000
next table: 2369
cur table: 2363
epoch: 1000
next table: 2312
cur table: 2369
epoch: 1000
next table: 2347
cur table: 2312
epoch: 1000
next table: 2389
cur table: 2347
epoch: 1000
next table: 2307
cur table: 2389
epoch: 1000
next table: 2364
cur table: 2307
epoch: 1000
next table: 2354
cur table: 2364
epoch: 1000
next table: 2300
cur table: 2354
epoch: 1000
next table: 2355
cur table: 2300
epoch: 1000
next table: 2345
cur table: 2355
epoch: 1000
next table: 2354
cur table: 2345
epoch: 1000
next table: 2374
cur table: 2354
epoch: 1000
next table: 2354
cur table: 2374
epoch: 1000
next table: 2354
cur table: 2354
epoch: 1000
next table: 2343
cur table: 2354
epoch: 1000
next table: 2354
cur table: 2343
epoch: 1000
next table: 2393
cur table: 2354
epoch: 1000
next table: 2402
cur table: 2393
epoch: 1000
next table: 2382
cur table: 2402
epoch: 1000
next table: 2388
cur table: 2382
epoch: 1000
next table: 2396
cur table: 2388
epoch: 1000
next table: 2386
cur table: 2396
epoch: 1000
next table: 2419
cur table: 2386
epoch: 1000
next table: 2382
cur table: 2419
epoch: 1000
next table: 2369
cur table: 2382
epoch: 1000
next table: 2356
cur table: 2369
epoch: 1000
next table: 2378
cur table: 2356
epoch: 1000
next table: 2362
cur table: 2378
epoch: 1000
next table: 2352
cur table: 2362
epoch: 1000
next table: 2355
cur table: 2352
epoch: 1000
next table: 2392
cur table: 2355
epoch: 1000
next table: 2381
cur table: 2392
epoch: 1000
next table: 2361
cur table: 2381
epoch: 1000
next table: 2359
cur table: 2361
epoch: 1000
next table: 2386
cur table: 2359
epoch: 1000
next table: 2365
cur table: 2386
epoch: 1000
next table: 2392
cur table: 2365
epoch: 1000
next table: 2355
cur table: 2392
epoch: 1000
next table: 2341
cur table: 2355
epoch: 1000
next table: 2398
cur table: 2341
epoch: 1000
next table: 2353
cur table: 2398
epoch: 1000
next table: 2376
cur table: 2353
epoch: 1000
next table: 2396
cur table: 2376
epoch: 1000
next table: 2391
cur table: 2396
epoch: 1000
next table: 2419
cur table: 2391
epoch: 1000
next table: 2324
cur table: 2419
epoch: 1000
next table: 2342
cur table: 2324
epoch: 1000
next table: 2341
cur table: 2342
epoch: 1000
next table: 2334
cur table: 2341
epoch: 1000
next table: 2378
cur table: 2334
epoch: 1000
next table: 2392
cur table: 2378
epoch: 1000
next table: 2368
cur table: 2392
epoch: 1000
next table: 2355
cur table: 2368
epoch: 1000
next table: 2395
cur table: 2355
epoch: 1000
next table: 2392
cur table: 2395
epoch: 1000
next table: 2406
cur table: 2392
epoch: 1000
next table: 2405
cur table: 2406
epoch: 1000
next table: 2368
cur table: 2405
epoch: 1000
next table: 2383
cur table: 2368
epoch: 1000
next table: 2354
cur table: 2383
epoch: 1000
next table: 2368
cur table: 2354
epoch: 1000
next table: 2363
cur table: 2368
epoch: 1000
next table: 2358
cur table: 2363
epoch: 1000
next table: 2365
cur table: 2358
epoch: 1000
next table: 2418
cur table: 2365
epoch: 1000
next table: 2372
cur table: 2418
epoch: 1000
next table: 2377
cur table: 2372
epoch: 1000
next table: 2392
cur table: 2377
epoch: 1000
next table: 2411
cur table: 2392
epoch: 1000
next table: 2378
cur table: 2411
epoch: 1000
next table: 2419
cur table: 2378
epoch: 1000
next table: 2374
cur table: 2419
epoch: 1000
next table: 2379
cur table: 2374
epoch: 1000
next table: 2380
cur table: 2379
epoch: 1000
next table: 2370
cur table: 2380
epoch: 1000
next table: 2356
cur table: 2370
epoch: 1000
next table: 2334
cur table: 2356
epoch: 1000
next table: 2375
cur table: 2334
epoch: 1000
next table: 2388
cur table: 2375
epoch: 1000
next table: 2334
cur table: 2388
epoch: 1000
next table: 2381
cur table: 2334
epoch: 1000
next table: 2366
cur table: 2381
epoch: 1000
next table: 2370
cur table: 2366
epoch: 1000
next table: 2384
cur table: 2370
epoch: 1000
next table: 2412
cur table: 2384
epoch: 1000
next table: 2399
cur table: 2412
epoch: 1000
next table: 2391
cur table: 2399
epoch: 1000
next table: 2403
cur table: 2391
epoch: 1000
next table: 2388
cur table: 2403
epoch: 1000
next table: 2406
cur table: 2388
epoch: 1000
next table: 2339
cur table: 2406
epoch: 1000
next table: 2402
cur table: 2339
epoch: 1000
next table: 2360
cur table: 2402
epoch: 1000
next table: 2383
cur table: 2360
epoch: 1000
next table: 2319
cur table: 2383
epoch: 1000
next table: 2385
cur table: 2319
epoch: 1000
next table: 2392
cur table: 2385
epoch: 1000
next table: 2370
cur table: 2392
epoch: 1000
next table: 2342
cur table: 2370
epoch: 1000
next table: 2381
cur table: 2342
epoch: 1000
next table: 2378
cur table: 2381
epoch: 1000
next table: 2404
cur table: 2378
epoch: 1000
next table: 2350
cur table: 2404
epoch: 1000
next table: 2338
cur table: 2350
epoch: 1000
next table: 2376
cur table: 2338
epoch: 1000
next table: 2413
cur table: 2376
epoch: 1000
next table: 2385
cur table: 2413
epoch: 1000
next table: 2374
cur table: 2385
epoch: 1000
next table: 2368
cur table: 2374
epoch: 1000
next table: 2397
cur table: 2368
epoch: 1000
next table: 2393
cur table: 2397
epoch: 1000
next table: 2364
cur table: 2393
epoch: 1000
next table: 2354
cur table: 2364
epoch: 1000
next table: 2366
cur table: 2354
epoch: 1000
next table: 2313
cur table: 2366
epoch: 1000
next table: 2336
cur table: 2313
epoch: 1000
next table: 2321
cur table: 2336
epoch: 1000
next table: 2404
cur table: 2321
epoch: 1000
next table: 2364
cur table: 2404
epoch: 1000
next table: 2383
cur table: 2364
epoch: 1000
next table: 2396
cur table: 2383
epoch: 1000
next table: 2398
cur table: 2396
epoch: 1000
next table: 2379
cur table: 2398
epoch: 1000
next table: 2355
cur table: 2379
epoch: 1000
next table: 2341
cur table: 2355
epoch: 1000
next table: 2341
cur table: 2341
epoch: 1000
next table: 2361
cur table: 2341
epoch: 1000
next table: 2365
cur table: 2361
epoch: 1000
next table: 2402
cur table: 2365
epoch: 1000
next table: 2385
cur table: 2402
epoch: 1000
next table: 2380
cur table: 2385
epoch: 1000
next table: 2348
cur table: 2380
epoch: 1000
next table: 2371
cur table: 2348
epoch: 1000
next table: 2365
cur table: 2371
epoch: 1000
next table: 2390
cur table: 2365
epoch: 1000
next table: 2374
cur table: 2390
epoch: 1000
next table: 2332
cur table: 2374
epoch: 1000
next table: 2332
cur table: 2332
epoch: 1000
next table: 2335
cur table: 2332
epoch: 1000
next table: 2345
cur table: 2335
epoch: 1000
next table: 2368
cur table: 2345
epoch: 1000
next table: 2396
cur table: 2368
epoch: 1000
next table: 2380
cur table: 2396
epoch: 1000
next table: 2386
cur table: 2380
epoch: 1000
next table: 2404
cur table: 2386
epoch: 1000
next table: 2358
cur table: 2404
epoch: 1000
next table: 2414
cur table: 2358
epoch: 1000
next table: 2424
cur table: 2414
epoch: 1000
next table: 2399
cur table: 2424
epoch: 1000
next table: 2347
cur table: 2399
epoch: 1000
next table: 2363
cur table: 2347
epoch: 1000
next table: 2385
cur table: 2363
epoch: 1000
next table: 2351
cur table: 2385
epoch: 1000
next table: 2396
cur table: 2351
epoch: 1000
next table: 2412
cur table: 2396
epoch: 1000
next table: 2393
cur table: 2412
epoch: 1000
next table: 2408
cur table: 2393
epoch: 1000
next table: 2381
cur table: 2408
epoch: 1000
next table: 2348
cur table: 2381
epoch: 1000
next table: 2323
cur table: 2348
epoch: 1000
next table: 2356
cur table: 2323
epoch: 1000
next table: 2324
cur table: 2356
epoch: 1000
next table: 2373
cur table: 2324
epoch: 1000
next table: 2385
cur table: 2373
epoch: 1000
next table: 2394
cur table: 2385
epoch: 1000
next table: 2401
cur table: 2394
epoch: 1000
next table: 2391
cur table: 2401
epoch: 1000
next table: 2410
cur table: 2391
epoch: 1000
next table: 2365
cur table: 2410
epoch: 1000
next table: 2397
cur table: 2365
epoch: 1000
next table: 2349
cur table: 2397
epoch: 1000
next table: 2366
cur table: 2349
epoch: 1000
next table: 2348
cur table: 2366
epoch: 1000
next table: 2394
cur table: 2348
epoch: 1000
next table: 2392
cur table: 2394
epoch: 1000
next table: 2356
cur table: 2392
epoch: 1000
next table: 2354
cur table: 2356
epoch: 1000
next table: 2369
cur table: 2354
epoch: 1000
next table: 2382
cur table: 2369
epoch: 1000
next table: 2333
cur table: 2382
epoch: 1000
next table: 2345
cur table: 2333
epoch: 1000
next table: 2363
cur table: 2345
epoch: 1000
next table: 2343
cur table: 2363
epoch: 1000
next table: 2303
cur table: 2343
epoch: 1000
next table: 2263
cur table: 2303
epoch: 1000
next table: 2278
cur table: 2263
epoch: 1000
next table: 2300
cur table: 2278
epoch: 1000
next table: 2300
cur table: 2300
epoch: 1000
next table: 2328
cur table: 2300
epoch: 1000
next table: 2326
cur table: 2328
epoch: 1000
next table: 2359
cur table: 2326
epoch: 1000
next table: 2358
cur table: 2359
epoch: 1000
next table: 2392
cur table: 2358
epoch: 1000
next table: 2358
cur table: 2392
epoch: 1000
next table: 2332
cur table: 2358
epoch: 1000
next table: 2399
cur table: 2332
epoch: 1000
next table: 2310
cur table: 2399
epoch: 1000
next table: 2325
cur table: 2310
epoch: 1000
next table: 2371
cur table: 2325
epoch: 1000
next table: 2377
cur table: 2371
epoch: 1000
next table: 2368
cur table: 2377
epoch: 1000
next table: 2373
cur table: 2368
epoch: 1000
next table: 2395
cur table: 2373
epoch: 1000
next table: 2404
cur table: 2395
epoch: 1000
next table: 2410
cur table: 2404
epoch: 1000
next table: 2392
cur table: 2410
epoch: 1000
next table: 2368
cur table: 2392
epoch: 1000
next table: 2366
cur table: 2368
epoch: 1000
next table: 2368
cur table: 2366
epoch: 1000
next table: 2306
cur table: 2368
epoch: 1000
next table: 2339
cur table: 2306
epoch: 1000
next table: 2342
cur table: 2339
epoch: 1000
next table: 2366
cur table: 2342
epoch: 1000
next table: 2352
cur table: 2366
epoch: 1000
next table: 2393
cur table: 2352
epoch: 1000
next table: 2389
cur table: 2393
epoch: 1000
next table: 2372
cur table: 2389
epoch: 1000
next table: 2332
cur table: 2372
epoch: 1000
next table: 2378
cur table: 2332
epoch: 1000
next table: 2296
cur table: 2378
epoch: 1000
next table: 2314
cur table: 2296
epoch: 1000
next table: 2399
cur table: 2314
epoch: 1000
next table: 2407
cur table: 2399
epoch: 1000
next table: 2333
cur table: 2407
epoch: 1000
next table: 2417
cur table: 2333
epoch: 1000
next table: 2367
cur table: 2417
epoch: 1000
next table: 2384
cur table: 2367
epoch: 1000
next table: 2407
cur table: 2384
epoch: 1000
next table: 2339
cur table: 2407
epoch: 1000
next table: 2353
cur table: 2339
epoch: 1000
next table: 2347
cur table: 2353
epoch: 1000
next table: 2346
cur table: 2347
epoch: 1000
next table: 2349
cur table: 2346
epoch: 1000
next table: 2331
cur table: 2349
epoch: 1000
next table: 2399
cur table: 2331
epoch: 1000
next table: 2358
cur table: 2399
epoch: 1000
next table: 2369
cur table: 2358
epoch: 1000
next table: 2380
cur table: 2369
epoch: 1000
next table: 2387
cur table: 2380
epoch: 1000
next table: 2380
cur table: 2387
epoch: 1000
next table: 2379
cur table: 2380
epoch: 1000
next table: 2412
cur table: 2379
epoch: 1000
next table: 2388
cur table: 2412
epoch: 1000
next table: 2415
cur table: 2388
epoch: 1000
next table: 2399
cur table: 2415
epoch: 1000
next table: 2434
cur table: 2399
epoch: 1000
next table: 2377
cur table: 2434
epoch: 1000
next table: 2391
cur table: 2377
epoch: 1000
next table: 2402
cur table: 2391
epoch: 1000
next table: 2389
cur table: 2402
epoch: 1000
next table: 2411
cur table: 2389
epoch: 1000
next table: 2396
cur table: 2411
epoch: 1000
next table: 2381
cur table: 2396
epoch: 1000
next table: 2365
cur table: 2381
epoch: 1000
next table: 2400
cur table: 2365
epoch: 1000
next table: 2393
cur table: 2400
epoch: 1000
next table: 2422
cur table: 2393
epoch: 1000
next table: 2387
cur table: 2422
epoch: 1000
next table: 2345
cur table: 2387
epoch: 1000
next table: 2331
cur table: 2345
epoch: 1000
next table: 2393
cur table: 2331
epoch: 1000
next table: 2346
cur table: 2393
epoch: 1000
next table: 2371
cur table: 2346
epoch: 1000
next table: 2391
cur table: 2371
epoch: 1000
next table: 2391
cur table: 2391
epoch: 1000
next table: 2396
cur table: 2391
epoch: 1000
next table: 2403
cur table: 2396
epoch: 1000
next table: 2404
cur table: 2403
epoch: 1000
next table: 2422
cur table: 2404
epoch: 1000
next table: 2390
cur table: 2422
epoch: 1000
next table: 2382
cur table: 2390
epoch: 1000
next table: 2283
cur table: 2382
epoch: 1000
next table: 2325
cur table: 2283
epoch: 1000
next table: 2339
cur table: 2325
epoch: 1000
next table: 2314
cur table: 2339
epoch: 1000
next table: 2340
cur table: 2314
epoch: 1000
next table: 2377
cur table: 2340
epoch: 1000
next table: 2358
cur table: 2377
epoch: 1000
next table: 2360
cur table: 2358
epoch: 1000
next table: 2392
cur table: 2360
epoch: 1000
next table: 2378
cur table: 2392
epoch: 1000
next table: 2413
cur table: 2378
epoch: 1000
next table: 2374
cur table: 2413
epoch: 1000
next table: 2342
cur table: 2374
epoch: 1000
next table: 2378
cur table: 2342
epoch: 1000
next table: 2377
cur table: 2378
epoch: 1000
next table: 2403
cur table: 2377
epoch: 1000
next table: 2318
cur table: 2403
epoch: 1000
next table: 2379
cur table: 2318
epoch: 1000
next table: 2345
cur table: 2379
epoch: 1000
next table: 2303
cur table: 2345
epoch: 1000
next table: 2357
cur table: 2303
epoch: 1000
next table: 2304
cur table: 2357
epoch: 1000
next table: 2299
cur table: 2304
epoch: 1000
next table: 2367
cur table: 2299
epoch: 1000
next table: 2342
cur table: 2367
epoch: 1000
next table: 2340
cur table: 2342
epoch: 1000
next table: 2346
cur table: 2340
epoch: 1000
next table: 2391
cur table: 2346
epoch: 1000
next table: 2398
cur table: 2391
epoch: 1000
next table: 2399
cur table: 2398
epoch: 1000
next table: 2394
cur table: 2399
epoch: 1000
next table: 2421
cur table: 2394
epoch: 1000
next table: 2395
cur table: 2421
epoch: 1000
next table: 2396
cur table: 2395
epoch: 1000
next table: 2411
cur table: 2396
epoch: 1000
next table: 2396
cur table: 2411
epoch: 1000
next table: 2363
cur table: 2396
epoch: 1000
next table: 2362
cur table: 2363
epoch: 1000
next table: 2346
cur table: 2362
epoch: 1000
next table: 2340
cur table: 2346
epoch: 1000
next table: 2334
cur table: 2340
epoch: 1000
next table: 2352
cur table: 2334
epoch: 1000
next table: 2364
cur table: 2352
epoch: 1000
next table: 2324
cur table: 2364
epoch: 1000
next table: 2359
cur table: 2324
epoch: 1000
next table: 2370
cur table: 2359
epoch: 1000
next table: 2320
cur table: 2370
epoch: 1000
next table: 2343
cur table: 2320
epoch: 1000
next table: 2333
cur table: 2343
epoch: 1000
next table: 2309
cur table: 2333
epoch: 1000
next table: 2298
cur table: 2309
epoch: 1000
next table: 2278
cur table: 2298
epoch: 1000
next table: 2323
cur table: 2278
epoch: 1000
next table: 2379
cur table: 2323
epoch: 1000
next table: 2339
cur table: 2379
epoch: 1000
next table: 2359
cur table: 2339
epoch: 1000
next table: 2370
cur table: 2359
epoch: 1000
next table: 2412
cur table: 2370
epoch: 1000
next table: 2313
cur table: 2412
epoch: 1000
next table: 2394
cur table: 2313
epoch: 1000
next table: 2344
cur table: 2394
epoch: 1000
next table: 2347
cur table: 2344
epoch: 1000
next table: 2307
cur table: 2347
epoch: 1000
next table: 2354
cur table: 2307
epoch: 1000
next table: 2336
cur table: 2354
epoch: 1000
next table: 2325
cur table: 2336
epoch: 1000
next table: 2341
cur table: 2325
epoch: 1000
next table: 2327
cur table: 2341
epoch: 1000
next table: 2326
cur table: 2327
epoch: 1000
next table: 2359
cur table: 2326
epoch: 1000
next table: 2397
cur table: 2359
epoch: 1000
next table: 2340
cur table: 2397
epoch: 1000
next table: 2387
cur table: 2340
epoch: 1000
next table: 2370
cur table: 2387
epoch: 1000
next table: 2407
cur table: 2370
epoch: 1000
next table: 2317
cur table: 2407
epoch: 1000
next table: 2295
cur table: 2317
epoch: 1000
next table: 2393
cur table: 2295
epoch: 1000
next table: 2303
cur table: 2393
epoch: 1000
next table: 2345
cur table: 2303
epoch: 1000
next table: 2380
cur table: 2345
epoch: 1000
next table: 2358
cur table: 2380
epoch: 1000
next table: 2353
cur table: 2358
epoch: 1000
next table: 2353
cur table: 2353
epoch: 1000
next table: 2385
cur table: 2353
epoch: 1000
next table: 2377
cur table: 2385
epoch: 1000
next table: 2302
cur table: 2377
epoch: 1000
next table: 2327
cur table: 2302
epoch: 1000
next table: 432714
cur table: 9463
epoch: 1000
next table: 2297
cur table: 2327
epoch: 1000
next table: 2296
cur table: 2297
epoch: 1000
next table: 2323
cur table: 2296
epoch: 1000
next table: 2314
cur table: 2323
epoch: 1000
next table: 2352
cur table: 2314
epoch: 1000
next table: 2333
cur table: 2352
epoch: 1000
next table: 2370
cur table: 2333
epoch: 1000
next table: 2372
cur table: 2370
epoch: 1000
next table: 2357
cur table: 2372
epoch: 1000
next table: 2312
cur table: 2357
epoch: 1000
next table: 2321
cur table: 2312
epoch: 1000
next table: 2355
cur table: 2321
epoch: 1000
next table: 2308
cur table: 2355
epoch: 1000
next table: 2334
cur table: 2308
epoch: 1000
next table: 2345
cur table: 2334
epoch: 1000
next table: 2358
cur table: 2345
epoch: 1000
next table: 2345
cur table: 2358
epoch: 1000
next table: 2373
cur table: 2345
epoch: 1000
next table: 2390
cur table: 2373
epoch: 1000
next table: 2362
cur table: 2390
epoch: 1000
next table: 2401
cur table: 2362
epoch: 1000
next table: 2358
cur table: 2401
epoch: 1000
next table: 2391
cur table: 2358
epoch: 1000
next table: 2408
cur table: 2391
epoch: 1000
next table: 2385
cur table: 2408
epoch: 1000
next table: 2375
cur table: 2385
epoch: 1000
next table: 2342
cur table: 2375
epoch: 1000
next table: 2371
cur table: 2342
epoch: 1000
next table: 2294
cur table: 2371
epoch: 1000
next table: 2363
cur table: 2294
epoch: 1000
next table: 2378
cur table: 2363
epoch: 1000
next table: 2333
cur table: 2378
epoch: 1000
next table: 2375
cur table: 2333
epoch: 1000
next table: 2315
cur table: 2375
epoch: 1000
next table: 2327
cur table: 2315
epoch: 1000
next table: 2325
cur table: 2327
epoch: 1000
next table: 2346
cur table: 2325
epoch: 1000
next table: 2332
cur table: 2346
epoch: 1000
next table: 2319
cur table: 2332
epoch: 1000
next table: 2311
cur table: 2319
epoch: 1000
next table: 2335
cur table: 2311
epoch: 1000
next table: 2397
cur table: 2335
epoch: 1000
next table: 2368
cur table: 2397
epoch: 1000
next table: 2402
cur table: 2368
epoch: 1000
next table: 2318
cur table: 2402
epoch: 1000
next table: 2339
cur table: 2318
epoch: 1000
next table: 2195
cur table: 2339
epoch: 1000
next table: 2303
cur table: 2195
epoch: 1000
next table: 2327
cur table: 2303
Heartbeat CPU 0 instructions: 20000001 cycles: 5807575 heartbeat IPC: 3.44479 cumulative IPC: 3.44378 (Simulation time: 0 hr 10 min 1 sec) 
epoch: 1000
next table: 2315
cur table: 2327
epoch: 1000
next table: 2360
cur table: 2315
epoch: 1000
next table: 2333
cur table: 2360
epoch: 1000
next table: 2309
cur table: 2333
epoch: 1000
next table: 2303
cur table: 2309
epoch: 1000
next table: 2295
cur table: 2303
epoch: 1000
next table: 2347
cur table: 2295
epoch: 1000
next table: 2365
cur table: 2347
epoch: 1000
next table: 2286
cur table: 2365
epoch: 1000
next table: 2371
cur table: 2286
epoch: 1000
next table: 2383
cur table: 2371
epoch: 1000
next table: 2407
cur table: 2383
epoch: 1000
next table: 2330
cur table: 2407
epoch: 1000
next table: 2388
cur table: 2330
epoch: 1000
next table: 2341
cur table: 2388
epoch: 1000
next table: 2290
cur table: 2341
epoch: 1000
next table: 2266
cur table: 2290
epoch: 1000
next table: 2264
cur table: 2266
epoch: 1000
next table: 2290
cur table: 2264
epoch: 1000
next table: 2239
cur table: 2290
epoch: 1000
next table: 2292
cur table: 2239
epoch: 1000
next table: 2311
cur table: 2292
epoch: 1000
next table: 2306
cur table: 2311
epoch: 1000
next table: 2332
cur table: 2306
epoch: 1000
next table: 2353
cur table: 2332
epoch: 1000
next table: 2343
cur table: 2353
epoch: 1000
next table: 2331
cur table: 2343
epoch: 1000
next table: 2289
cur table: 2331
epoch: 1000
next table: 2314
cur table: 2289
epoch: 1000
next table: 2264
cur table: 2314
epoch: 1000
next table: 2393
cur table: 2264
epoch: 1000
next table: 2345
cur table: 2393
epoch: 1000
next table: 2278
cur table: 2345
epoch: 1000
next table: 2341
cur table: 2278
epoch: 1000
next table: 2299
cur table: 2341
epoch: 1000
next table: 2338
cur table: 2299
epoch: 1000
next table: 2363
cur table: 2338
epoch: 1000
next table: 2319
cur table: 2363
epoch: 1000
next table: 2344
cur table: 2319
epoch: 1000
next table: 2365
cur table: 2344
epoch: 1000
next table: 2375
cur table: 2365
epoch: 1000
next table: 2321
cur table: 2375
epoch: 1000
next table: 2332
cur table: 2321
epoch: 1000
next table: 2343
cur table: 2332
epoch: 1000
next table: 2291
cur table: 2343
epoch: 1000
next table: 2359
cur table: 2291
epoch: 1000
next table: 2368
cur table: 2359
epoch: 1000
next table: 2353
cur table: 2368
epoch: 1000
next table: 2316
cur table: 2353
epoch: 1000
next table: 2378
cur table: 2316
epoch: 1000
next table: 2328
cur table: 2378
epoch: 1000
next table: 2353
cur table: 2328
epoch: 1000
next table: 2386
cur table: 2353
epoch: 1000
next table: 2359
cur table: 2386
epoch: 1000
next table: 2304
cur table: 2359
epoch: 1000
next table: 2345
cur table: 2304
epoch: 1000
next table: 2359
cur table: 2345
epoch: 1000
next table: 2361
cur table: 2359
epoch: 1000
next table: 2344
cur table: 2361
epoch: 1000
next table: 2395
cur table: 2344
epoch: 1000
next table: 2383
cur table: 2395
epoch: 1000
next table: 2389
cur table: 2383
epoch: 1000
next table: 2360
cur table: 2389
epoch: 1000
next table: 2380
cur table: 2360
epoch: 1000
next table: 2378
cur table: 2380
epoch: 1000
next table: 2393
cur table: 2378
epoch: 1000
next table: 2337
cur table: 2393
epoch: 1000
next table: 2362
cur table: 2337
epoch: 1000
next table: 2364
cur table: 2362
epoch: 1000
next table: 2367
cur table: 2364
epoch: 1000
next table: 2341
cur table: 2367
epoch: 1000
next table: 2354
cur table: 2341
epoch: 1000
next table: 2398
cur table: 2354
epoch: 1000
next table: 2409
cur table: 2398
epoch: 1000
next table: 2344
cur table: 2409
epoch: 1000
next table: 2350
cur table: 2344
epoch: 1000
next table: 2349
cur table: 2350
epoch: 1000
next table: 2282
cur table: 2349
epoch: 1000
next table: 2294
cur table: 2282
epoch: 1000
next table: 2257
cur table: 2294
epoch: 1000
next table: 2290
cur table: 2257
epoch: 1000
next table: 2331
cur table: 2290
epoch: 1000
next table: 2324
cur table: 2331
epoch: 1000
next table: 2328
cur table: 2324
epoch: 1000
next table: 2315
cur table: 2328
epoch: 1000
next table: 2328
cur table: 2315
epoch: 1000
next table: 2283
cur table: 2328
epoch: 1000
next table: 2273
cur table: 2283
epoch: 1000
next table: 2320
cur table: 2273
epoch: 1000
next table: 2330
cur table: 2320
epoch: 1000
next table: 2384
cur table: 2330
epoch: 1000
next table: 2387
cur table: 2384
epoch: 1000
next table: 2388
cur table: 2387
epoch: 1000
next table: 2359
cur table: 2388
epoch: 1000
next table: 2375
cur table: 2359
epoch: 1000
next table: 2381
cur table: 2375
epoch: 1000
next table: 2392
cur table: 2381
epoch: 1000
next table: 2416
cur table: 2392
epoch: 1000
next table: 2345
cur table: 2416
epoch: 1000
next table: 2380
cur table: 2345
epoch: 1000
next table: 2364
cur table: 2380
epoch: 1000
next table: 2402
cur table: 2364
epoch: 1000
next table: 2365
cur table: 2402
epoch: 1000
next table: 2381
cur table: 2365
epoch: 1000
next table: 2376
cur table: 2381
epoch: 1000
next table: 2331
cur table: 2376
epoch: 1000
next table: 2265
cur table: 2331
epoch: 1000
next table: 2334
cur table: 2265
epoch: 1000
next table: 2302
cur table: 2334
epoch: 1000
next table: 2317
cur table: 2302
epoch: 1000
next table: 2342
cur table: 2317
epoch: 1000
next table: 2272
cur table: 2342
epoch: 1000
next table: 2340
cur table: 2272
epoch: 1000
next table: 2353
cur table: 2340
epoch: 1000
next table: 2384
cur table: 2353
epoch: 1000
next table: 2355
cur table: 2384
epoch: 1000
next table: 2409
cur table: 2355
epoch: 1000
next table: 2377
cur table: 2409
epoch: 1000
next table: 2357
cur table: 2377
epoch: 1000
next table: 2317
cur table: 2357
epoch: 1000
next table: 2367
cur table: 2317
epoch: 1000
next table: 2375
cur table: 2367
epoch: 1000
next table: 2312
cur table: 2375
epoch: 1000
next table: 2316
cur table: 2312
epoch: 1000
next table: 2334
cur table: 2316
epoch: 1000
next table: 2304
cur table: 2334
epoch: 1000
next table: 2370
cur table: 2304
epoch: 1000
next table: 2367
cur table: 2370
epoch: 1000
next table: 2374
cur table: 2367
epoch: 1000
next table: 2372
cur table: 2374
epoch: 1000
next table: 2359
cur table: 2372
epoch: 1000
next table: 2388
cur table: 2359
epoch: 1000
next table: 2286
cur table: 2388
epoch: 1000
next table: 2328
cur table: 2286
epoch: 1000
next table: 2331
cur table: 2328
epoch: 1000
next table: 2284
cur table: 2331
epoch: 1000
next table: 2367
cur table: 2284
epoch: 1000
next table: 2319
cur table: 2367
epoch: 1000
next table: 2364
cur table: 2319
epoch: 1000
next table: 2363
cur table: 2364
epoch: 1000
next table: 2394
cur table: 2363
epoch: 1000
next table: 2401
cur table: 2394
epoch: 1000
next table: 2335
cur table: 2401
epoch: 1000
next table: 2342
cur table: 2335
epoch: 1000
next table: 2360
cur table: 2342
epoch: 1000
next table: 2299
cur table: 2360
epoch: 1000
next table: 2372
cur table: 2299
epoch: 1000
next table: 2379
cur table: 2372
epoch: 1000
next table: 2358
cur table: 2379
epoch: 1000
next table: 2364
cur table: 2358
epoch: 1000
next table: 2379
cur table: 2364
epoch: 1000
next table: 2406
cur table: 2379
epoch: 1000
next table: 2387
cur table: 2406
epoch: 1000
next table: 2394
cur table: 2387
epoch: 1000
next table: 2406
cur table: 2394
epoch: 1000
next table: 2402
cur table: 2406
epoch: 1000
next table: 2346
cur table: 2402
epoch: 1000
next table: 2353
cur table: 2346
epoch: 1000
next table: 2331
cur table: 2353
epoch: 1000
next table: 2376
cur table: 2331
epoch: 1000
next table: 2360
cur table: 2376
epoch: 1000
next table: 2404
cur table: 2360
epoch: 1000
next table: 2346
cur table: 2404
epoch: 1000
next table: 2384
cur table: 2346
epoch: 1000
next table: 2380
cur table: 2384
epoch: 1000
next table: 2391
cur table: 2380
epoch: 1000
next table: 2386
cur table: 2391
epoch: 1000
next table: 2328
cur table: 2386
epoch: 1000
next table: 2330
cur table: 2328
epoch: 1000
next table: 2415
cur table: 2330
epoch: 1000
next table: 2332
cur table: 2415
epoch: 1000
next table: 2381
cur table: 2332
epoch: 1000
next table: 2375
cur table: 2381
epoch: 1000
next table: 2413
cur table: 2375
epoch: 1000
next table: 2425
cur table: 2413
epoch: 1000
next table: 2371
cur table: 2425
epoch: 1000
next table: 2394
cur table: 2371
epoch: 1000
next table: 2391
cur table: 2394
epoch: 1000
next table: 2357
cur table: 2391
epoch: 1000
next table: 2375
cur table: 2357
epoch: 1000
next table: 2292
cur table: 2375
epoch: 1000
next table: 2353
cur table: 2292
epoch: 1000
next table: 2265
cur table: 2353
epoch: 1000
next table: 2316
cur table: 2265
epoch: 1000
next table: 2324
cur table: 2316
epoch: 1000
next table: 2343
cur table: 2324
epoch: 1000
next table: 2301
cur table: 2343
epoch: 1000
next table: 2191
cur table: 2301
epoch: 1000
next table: 2316
cur table: 2191
epoch: 1000
next table: 2291
cur table: 2316
epoch: 1000
next table: 2370
cur table: 2291
epoch: 1000
next table: 2345
cur table: 2370
epoch: 1000
next table: 2385
cur table: 2345
epoch: 1000
next table: 2316
cur table: 2385
epoch: 1000
next table: 2387
cur table: 2316
epoch: 1000
next table: 2370
cur table: 2387
epoch: 1000
next table: 2280
cur table: 2370
epoch: 1000
next table: 2319
cur table: 2280
epoch: 1000
next table: 2272
cur table: 2319
epoch: 1000
next table: 2269
cur table: 2272
epoch: 1000
next table: 2307
cur table: 2269
epoch: 1000
next table: 2301
cur table: 2307
epoch: 1000
next table: 2348
cur table: 2301
epoch: 1000
next table: 2285
cur table: 2348
epoch: 1000
next table: 2341
cur table: 2285
epoch: 1000
next table: 2310
cur table: 2341
epoch: 1000
next table: 2358
cur table: 2310
epoch: 1000
next table: 2347
cur table: 2358
epoch: 1000
next table: 2329
cur table: 2347
epoch: 1000
next table: 2353
cur table: 2329
epoch: 1000
next table: 2371
cur table: 2353
epoch: 1000
next table: 2361
cur table: 2371
epoch: 1000
next table: 2333
cur table: 2361
epoch: 1000
next table: 2341
cur table: 2333
epoch: 1000
next table: 2340
cur table: 2341
epoch: 1000
next table: 2341
cur table: 2340
epoch: 1000
next table: 2367
cur table: 2341
epoch: 1000
next table: 2371
cur table: 2367
epoch: 1000
next table: 2389
cur table: 2371
epoch: 1000
next table: 2380
cur table: 2389
epoch: 1000
next table: 2383
cur table: 2380
epoch: 1000
next table: 2368
cur table: 2383
epoch: 1000
next table: 2360
cur table: 2368
epoch: 1000
next table: 2218
cur table: 2360
epoch: 1000
next table: 2316
cur table: 2218
epoch: 1000
next table: 2337
cur table: 2316
epoch: 1000
next table: 2268
cur table: 2337
epoch: 1000
next table: 2310
cur table: 2268
epoch: 1000
next table: 2348
cur table: 2310
epoch: 1000
next table: 2363
cur table: 2348
epoch: 1000
next table: 2391
cur table: 2363
epoch: 1000
next table: 2329
cur table: 2391
epoch: 1000
next table: 2323
cur table: 2329
epoch: 1000
next table: 2330
cur table: 2323
epoch: 1000
next table: 2341
cur table: 2330
epoch: 1000
next table: 2373
cur table: 2341
epoch: 1000
next table: 2414
cur table: 2373
epoch: 1000
next table: 2378
cur table: 2414
epoch: 1000
next table: 2377
cur table: 2378
epoch: 1000
next table: 2356
cur table: 2377
epoch: 1000
next table: 2376
cur table: 2356
epoch: 1000
next table: 2401
cur table: 2376
epoch: 1000
next table: 2368
cur table: 2401
epoch: 1000
next table: 2315
cur table: 2368
epoch: 1000
next table: 2317
cur table: 2315
epoch: 1000
next table: 2257
cur table: 2317
epoch: 1000
next table: 2358
cur table: 2257
epoch: 1000
next table: 2340
cur table: 2358
epoch: 1000
next table: 2309
cur table: 2340
epoch: 1000
next table: 2326
cur table: 2309
epoch: 1000
next table: 2342
cur table: 2326
epoch: 1000
next table: 2343
cur table: 2342
epoch: 1000
next table: 2386
cur table: 2343
epoch: 1000
next table: 2385
cur table: 2386
epoch: 1000
next table: 2359
cur table: 2385
epoch: 1000
next table: 2365
cur table: 2359
epoch: 1000
next table: 2348
cur table: 2365
epoch: 1000
next table: 2395
cur table: 2348
epoch: 1000
next table: 2407
cur table: 2395
epoch: 1000
next table: 2366
cur table: 2407
epoch: 1000
next table: 2310
cur table: 2366
epoch: 1000
next table: 2379
cur table: 2310
epoch: 1000
next table: 2363
cur table: 2379
epoch: 1000
next table: 2313
cur table: 2363
epoch: 1000
next table: 2330
cur table: 2313
epoch: 1000
next table: 2372
cur table: 2330
epoch: 1000
next table: 2293
cur table: 2372
epoch: 1000
next table: 2349
cur table: 2293
epoch: 1000
next table: 2340
cur table: 2349
epoch: 1000
next table: 2360
cur table: 2340
epoch: 1000
next table: 2375
cur table: 2360
epoch: 1000
next table: 2334
cur table: 2375
epoch: 1000
next table: 2362
cur table: 2334
epoch: 1000
next table: 2348
cur table: 2362
epoch: 1000
next table: 2354
cur table: 2348
epoch: 1000
next table: 2372
cur table: 2354
epoch: 1000
next table: 2315
cur table: 2372
epoch: 1000
next table: 2392
cur table: 2315
epoch: 1000
next table: 2350
cur table: 2392
epoch: 1000
next table: 2405
cur table: 2350
epoch: 1000
next table: 2338
cur table: 2405
epoch: 1000
next table: 2323
cur table: 2338
epoch: 1000
next table: 2347
cur table: 2323
epoch: 1000
next table: 2294
cur table: 2347
epoch: 1000
next table: 2300
cur table: 2294
epoch: 1000
next table: 2330
cur table: 2300
epoch: 1000
next table: 2336
cur table: 2330
epoch: 1000
next table: 2319
cur table: 2336
epoch: 1000
next table: 2330
cur table: 2319
epoch: 1000
next table: 2344
cur table: 2330
epoch: 1000
next table: 2340
cur table: 2344
epoch: 1000
next table: 2277
cur table: 2340
epoch: 1000
next table: 2329
cur table: 2277
epoch: 1000
next table: 2303
cur table: 2329
epoch: 1000
next table: 2278
cur table: 2303
epoch: 1000
next table: 2363
cur table: 2278
epoch: 1000
next table: 2388
cur table: 2363
epoch: 1000
next table: 2409
cur table: 2388
epoch: 1000
next table: 2383
cur table: 2409
epoch: 1000
next table: 2373
cur table: 2383
epoch: 1000
next table: 2363
cur table: 2373
epoch: 1000
next table: 2390
cur table: 2363
epoch: 1000
next table: 2324
cur table: 2390
epoch: 1000
next table: 2348
cur table: 2324
epoch: 1000
next table: 2387
cur table: 2348
epoch: 1000
next table: 2348
cur table: 2387
epoch: 1000
next table: 2357
cur table: 2348
epoch: 1000
next table: 2367
cur table: 2357
epoch: 1000
next table: 2395
cur table: 2367
epoch: 1000
next table: 2388
cur table: 2395
epoch: 1000
next table: 2390
cur table: 2388
epoch: 1000
next table: 2402
cur table: 2390
epoch: 1000
next table: 2417
cur table: 2402
epoch: 1000
next table: 2408
cur table: 2417
epoch: 1000
next table: 2402
cur table: 2408
epoch: 1000
next table: 2343
cur table: 2402
epoch: 1000
next table: 2310
cur table: 2343
epoch: 1000
next table: 2292
cur table: 2310
epoch: 1000
next table: 2299
cur table: 2292
epoch: 1000
next table: 2290
cur table: 2299
epoch: 1000
next table: 2251
cur table: 2290
epoch: 1000
next table: 2286
cur table: 2251
epoch: 1000
next table: 2273
cur table: 2286
epoch: 1000
next table: 2357
cur table: 2273
epoch: 1000
next table: 2383
cur table: 2357
epoch: 1000
next table: 2322
cur table: 2383
epoch: 1000
next table: 2367
cur table: 2322
epoch: 1000
next table: 2366
cur table: 2367
epoch: 1000
next table: 2385
cur table: 2366
epoch: 1000
next table: 2372
cur table: 2385
epoch: 1000
next table: 2414
cur table: 2372
epoch: 1000
next table: 2392
cur table: 2414
epoch: 1000
next table: 2372
cur table: 2392
epoch: 1000
next table: 2392
cur table: 2372
epoch: 1000
next table: 2404
cur table: 2392
epoch: 1000
next table: 2387
cur table: 2404
epoch: 1000
next table: 2391
cur table: 2387
epoch: 1000
next table: 2341
cur table: 2391
epoch: 1000
next table: 2268
cur table: 2341
epoch: 1000
next table: 2220
cur table: 2268
epoch: 1000
next table: 2235
cur table: 2220
epoch: 1000
next table: 2313
cur table: 2235
epoch: 1000
next table: 2321
cur table: 2313
epoch: 1000
next table: 2378
cur table: 2321
epoch: 1000
next table: 2419
cur table: 2378
epoch: 1000
next table: 2419
cur table: 2419
epoch: 1000
next table: 2422
cur table: 2419
epoch: 1000
next table: 2407
cur table: 2422
epoch: 1000
next table: 2395
cur table: 2407
epoch: 1000
next table: 2421
cur table: 2395
epoch: 1000
next table: 2425
cur table: 2421
epoch: 1000
next table: 2403
cur table: 2425
epoch: 1000
next table: 2417
cur table: 2403
epoch: 1000
next table: 2444
cur table: 2417
epoch: 1000
next table: 2420
cur table: 2444
epoch: 1000
next table: 2433
cur table: 2420
epoch: 1000
next table: 2405
cur table: 2433
epoch: 1000
next table: 2399
cur table: 2405
epoch: 1000
next table: 2417
cur table: 2399
epoch: 1000
next table: 2417
cur table: 2417
epoch: 1000
next table: 2429
cur table: 2417
epoch: 1000
next table: 2398
cur table: 2429
epoch: 1000
next table: 2419
cur table: 2398
epoch: 1000
next table: 2392
cur table: 2419
epoch: 1000
next table: 2417
cur table: 2392
epoch: 1000
next table: 2407
cur table: 2417
epoch: 1000
next table: 2409
cur table: 2407
epoch: 1000
next table: 2415
cur table: 2409
epoch: 1000
next table: 2392
cur table: 2415
epoch: 1000
next table: 2381
cur table: 2392
epoch: 1000
next table: 2377
cur table: 2381
epoch: 1000
next table: 2345
cur table: 2377
epoch: 1000
next table: 2361
cur table: 2345
epoch: 1000
next table: 2387
cur table: 2361
epoch: 1000
next table: 2360
cur table: 2387
epoch: 1000
next table: 2337
cur table: 2360
epoch: 1000
next table: 2375
cur table: 2337
epoch: 1000
next table: 2398
cur table: 2375
epoch: 1000
next table: 2410
cur table: 2398
epoch: 1000
next table: 2387
cur table: 2410
epoch: 1000
next table: 2395
cur table: 2387
epoch: 1000
next table: 2401
cur table: 2395
epoch: 1000
next table: 2404
cur table: 2401
epoch: 1000
next table: 2433
cur table: 2404
epoch: 1000
next table: 2402
cur table: 2433
epoch: 1000
next table: 2429
cur table: 2402
epoch: 1000
next table: 2395
cur table: 2429
epoch: 1000
next table: 2400
cur table: 2395
epoch: 1000
next table: 2407
cur table: 2400
epoch: 1000
next table: 2396
cur table: 2407
epoch: 1000
next table: 2413
cur table: 2396
epoch: 1000
next table: 2414
cur table: 2413
epoch: 1000
next table: 2406
cur table: 2414
epoch: 1000
next table: 2367
cur table: 2406
epoch: 1000
next table: 2389
cur table: 2367
epoch: 1000
next table: 2377
cur table: 2389
epoch: 1000
next table: 2419
cur table: 2377
epoch: 1000
next table: 2394
cur table: 2419
epoch: 1000
next table: 2418
cur table: 2394
epoch: 1000
next table: 2395
cur table: 2418
epoch: 1000
next table: 2401
cur table: 2395
epoch: 1000
next table: 2403
cur table: 2401
epoch: 1000
next table: 2402
cur table: 2403
epoch: 1000
next table: 2401
cur table: 2402
epoch: 1000
next table: 2393
cur table: 2401
epoch: 1000
next table: 2351
cur table: 2393
epoch: 1000
next table: 2364
cur table: 2351
epoch: 1000
next table: 2374
cur table: 2364
epoch: 1000
next table: 2418
cur table: 2374
epoch: 1000
next table: 2387
cur table: 2418
epoch: 1000
next table: 2392
cur table: 2387
epoch: 1000
next table: 2390
cur table: 2392
epoch: 1000
next table: 2400
cur table: 2390
epoch: 1000
next table: 2359
cur table: 2400
epoch: 1000
next table: 2367
cur table: 2359
epoch: 1000
next table: 2371
cur table: 2367
epoch: 1000
next table: 2393
cur table: 2371
epoch: 1000
next table: 2426
cur table: 2393
epoch: 1000
next table: 2407
cur table: 2426
epoch: 1000
next table: 2434
cur table: 2407
epoch: 1000
next table: 2408
cur table: 2434
epoch: 1000
next table: 2398
cur table: 2408
epoch: 1000
next table: 2405
cur table: 2398
epoch: 1000
next table: 2407
cur table: 2405
epoch: 1000
next table: 2410
cur table: 2407
epoch: 1000
next table: 2410
cur table: 2410
epoch: 1000
next table: 2410
cur table: 2410
epoch: 1000
next table: 2415
cur table: 2410
epoch: 1000
next table: 2363
cur table: 2415
epoch: 1000
next table: 2390
cur table: 2363
epoch: 1000
next table: 2352
cur table: 2390
epoch: 1000
next table: 2334
cur table: 2352
epoch: 1000
next table: 2278
cur table: 2334
epoch: 1000
next table: 2300
cur table: 2278
epoch: 1000
next table: 2271
cur table: 2300
epoch: 1000
next table: 2294
cur table: 2271
epoch: 1000
next table: 2267
cur table: 2294
epoch: 1000
next table: 2307
cur table: 2267
epoch: 1000
next table: 2300
cur table: 2307
epoch: 1000
next table: 2322
cur table: 2300
epoch: 1000
next table: 2289
cur table: 2322
epoch: 1000
next table: 2267
cur table: 2289
epoch: 1000
next table: 2316
cur table: 2267
epoch: 1000
next table: 2280
cur table: 2316
epoch: 1000
next table: 2330
cur table: 2280
epoch: 1000
next table: 2316
cur table: 2330
epoch: 1000
next table: 2346
cur table: 2316
epoch: 1000
next table: 2354
cur table: 2346
epoch: 1000
next table: 2283
cur table: 2354
epoch: 1000
next table: 2268
cur table: 2283
epoch: 1000
next table: 2335
cur table: 2268
epoch: 1000
next table: 2353
cur table: 2335
epoch: 1000
next table: 2262
cur table: 2353
epoch: 1000
next table: 2268
cur table: 2262
epoch: 1000
next table: 2370
cur table: 2268
epoch: 1000
next table: 2390
cur table: 2370
epoch: 1000
next table: 2326
cur table: 2390
epoch: 1000
next table: 2362
cur table: 2326
epoch: 1000
next table: 2366
cur table: 2362
epoch: 1000
next table: 2392
cur table: 2366
epoch: 1000
next table: 2325
cur table: 2392
epoch: 1000
next table: 2363
cur table: 2325
epoch: 1000
next table: 2331
cur table: 2363
epoch: 1000
next table: 2221
cur table: 2331
epoch: 1000
next table: 2258
cur table: 2221
epoch: 1000
next table: 2319
cur table: 2258
epoch: 1000
next table: 2340
cur table: 2319
epoch: 1000
next table: 2335
cur table: 2340
epoch: 1000
next table: 2357
cur table: 2335
epoch: 1000
next table: 2374
cur table: 2357
epoch: 1000
next table: 2414
cur table: 2374
epoch: 1000
next table: 2395
cur table: 2414
epoch: 1000
next table: 2267
cur table: 2395
epoch: 1000
next table: 2338
cur table: 2267
epoch: 1000
next table: 2309
cur table: 2338
epoch: 1000
next table: 2344
cur table: 2309
epoch: 1000
next table: 2367
cur table: 2344
epoch: 1000
next table: 2349
cur table: 2367
epoch: 1000
next table: 2364
cur table: 2349
epoch: 1000
next table: 2394
cur table: 2364
epoch: 1000
next table: 2405
cur table: 2394
epoch: 1000
next table: 2426
cur table: 2405
epoch: 1000
next table: 2420
cur table: 2426
epoch: 1000
next table: 2400
cur table: 2420
epoch: 1000
next table: 2392
cur table: 2400
epoch: 1000
next table: 2398
cur table: 2392
Heartbeat CPU 0 instructions: 30000000 cycles: 8706850 heartbeat IPC: 3.44914 cumulative IPC: 3.44556 (Simulation time: 0 hr 14 min 11 sec) 
epoch: 1000
next table: 2417
cur table: 2398
epoch: 1000
next table: 2424
cur table: 2417
epoch: 1000
next table: 2433
cur table: 2424
epoch: 1000
next table: 2417
cur table: 2433
epoch: 1000
next table: 2417
cur table: 2417
epoch: 1000
next table: 2401
cur table: 2417
epoch: 1000
next table: 2414
cur table: 2401
epoch: 1000
next table: 2404
cur table: 2414
epoch: 1000
next table: 2335
cur table: 2404
epoch: 1000
next table: 2313
cur table: 2335
epoch: 1000
next table: 2324
cur table: 2313
epoch: 1000
next table: 2347
cur table: 2324
epoch: 1000
next table: 2330
cur table: 2347
epoch: 1000
next table: 2352
cur table: 2330
epoch: 1000
next table: 2341
cur table: 2352
epoch: 1000
next table: 2338
cur table: 2341
epoch: 1000
next table: 2309
cur table: 2338
epoch: 1000
next table: 2335
cur table: 2309
epoch: 1000
next table: 2294
cur table: 2335
epoch: 1000
next table: 2314
cur table: 2294
epoch: 1000
next table: 2333
cur table: 2314
epoch: 1000
next table: 2314
cur table: 2333
epoch: 1000
next table: 2316
cur table: 2314
epoch: 1000
next table: 2348
cur table: 2316
epoch: 1000
next table: 2387
cur table: 2348
epoch: 1000
next table: 2362
cur table: 2387
epoch: 1000
next table: 2408
cur table: 2362
epoch: 1000
next table: 2343
cur table: 2408
epoch: 1000
next table: 2289
cur table: 2343
epoch: 1000
next table: 2306
cur table: 2289
epoch: 1000
next table: 2267
cur table: 2306
epoch: 1000
next table: 2300
cur table: 2267
epoch: 1000
next table: 2227
cur table: 2300
epoch: 1000
next table: 2287
cur table: 2227
epoch: 1000
next table: 2303
cur table: 2287
epoch: 1000
next table: 2281
cur table: 2303
epoch: 1000
next table: 2270
cur table: 2281
epoch: 1000
next table: 2299
cur table: 2270
epoch: 1000
next table: 2259
cur table: 2299
epoch: 1000
next table: 2315
cur table: 2259
epoch: 1000
next table: 2290
cur table: 2315
epoch: 1000
next table: 2293
cur table: 2290
epoch: 1000
next table: 2333
cur table: 2293
epoch: 1000
next table: 2352
cur table: 2333
epoch: 1000
next table: 2375
cur table: 2352
epoch: 1000
next table: 2379
cur table: 2375
epoch: 1000
next table: 2382
cur table: 2379
epoch: 1000
next table: 2365
cur table: 2382
epoch: 1000
next table: 2379
cur table: 2365
epoch: 1000
next table: 2373
cur table: 2379
epoch: 1000
next table: 2407
cur table: 2373
epoch: 1000
next table: 2393
cur table: 2407
epoch: 1000
next table: 2372
cur table: 2393
epoch: 1000
next table: 2349
cur table: 2372
epoch: 1000
next table: 2333
cur table: 2349
epoch: 1000
next table: 2386
cur table: 2333
epoch: 1000
next table: 2263
cur table: 2386
epoch: 1000
next table: 2347
cur table: 2263
epoch: 1000
next table: 2307
cur table: 2347
epoch: 1000
next table: 2317
cur table: 2307
epoch: 1000
next table: 2348
cur table: 2317
epoch: 1000
next table: 2340
cur table: 2348
epoch: 1000
next table: 2350
cur table: 2340
epoch: 1000
next table: 2388
cur table: 2350
epoch: 1000
next table: 2392
cur table: 2388
epoch: 1000
next table: 2358
cur table: 2392
epoch: 1000
next table: 2396
cur table: 2358
epoch: 1000
next table: 2421
cur table: 2396
epoch: 1000
next table: 2377
cur table: 2421
epoch: 1000
next table: 2401
cur table: 2377
epoch: 1000
next table: 2361
cur table: 2401
epoch: 1000
next table: 2385
cur table: 2361
epoch: 1000
next table: 2397
cur table: 2385
epoch: 1000
next table: 2419
cur table: 2397
epoch: 1000
next table: 2357
cur table: 2419
epoch: 1000
next table: 2348
cur table: 2357
epoch: 1000
next table: 2307
cur table: 2348
epoch: 1000
next table: 2365
cur table: 2307
epoch: 1000
next table: 2295
cur table: 2365
epoch: 1000
next table: 2366
cur table: 2295
epoch: 1000
next table: 2347
cur table: 2366
epoch: 1000
next table: 2348
cur table: 2347
epoch: 1000
next table: 2309
cur table: 2348
epoch: 1000
next table: 2336
cur table: 2309
epoch: 1000
next table: 2289
cur table: 2336
epoch: 1000
next table: 2314
cur table: 2289
epoch: 1000
next table: 2371
cur table: 2314
epoch: 1000
next table: 2334
cur table: 2371
epoch: 1000
next table: 2349
cur table: 2334
epoch: 1000
next table: 2358
cur table: 2349
epoch: 1000
next table: 2315
cur table: 2358
epoch: 1000
next table: 2354
cur table: 2315
epoch: 1000
next table: 2379
cur table: 2354
epoch: 1000
next table: 2350
cur table: 2379
epoch: 1000
next table: 2353
cur table: 2350
epoch: 1000
next table: 2374
cur table: 2353
epoch: 1000
next table: 2362
cur table: 2374
epoch: 1000
next table: 2342
cur table: 2362
epoch: 1000
next table: 2347
cur table: 2342
epoch: 1000
next table: 2383
cur table: 2347
epoch: 1000
next table: 2381
cur table: 2383
epoch: 1000
next table: 2304
cur table: 2381
epoch: 1000
next table: 2309
cur table: 2304
epoch: 1000
next table: 2286
cur table: 2309
epoch: 1000
next table: 2304
cur table: 2286
epoch: 1000
next table: 2368
cur table: 2304
epoch: 1000
next table: 2345
cur table: 2368
epoch: 1000
next table: 2340
cur table: 2345
epoch: 1000
next table: 2363
cur table: 2340
epoch: 1000
next table: 2391
cur table: 2363
epoch: 1000
next table: 2371
cur table: 2391
epoch: 1000
next table: 2359
cur table: 2371
epoch: 1000
next table: 2368
cur table: 2359
epoch: 1000
next table: 2265
cur table: 2368
epoch: 1000
next table: 2230
cur table: 2265
epoch: 1000
next table: 2241
cur table: 2230
epoch: 1000
next table: 2306
cur table: 2241
epoch: 1000
next table: 2311
cur table: 2306
epoch: 1000
next table: 2351
cur table: 2311
epoch: 1000
next table: 2348
cur table: 2351
epoch: 1000
next table: 2336
cur table: 2348
epoch: 1000
next table: 2339
cur table: 2336
epoch: 1000
next table: 2378
cur table: 2339
epoch: 1000
next table: 2397
cur table: 2378
epoch: 1000
next table: 2395
cur table: 2397
epoch: 1000
next table: 2411
cur table: 2395
epoch: 1000
next table: 2420
cur table: 2411
epoch: 1000
next table: 2406
cur table: 2420
epoch: 1000
next table: 2419
cur table: 2406
epoch: 1000
next table: 2403
cur table: 2419
epoch: 1000
next table: 2406
cur table: 2403
epoch: 1000
next table: 2373
cur table: 2406
epoch: 1000
next table: 2344
cur table: 2373
epoch: 1000
next table: 2390
cur table: 2344
epoch: 1000
next table: 2361
cur table: 2390
epoch: 1000
next table: 2320
cur table: 2361
epoch: 1000
next table: 2282
cur table: 2320
epoch: 1000
next table: 2354
cur table: 2282
epoch: 1000
next table: 2278
cur table: 2354
epoch: 1000
next table: 2308
cur table: 2278
epoch: 1000
next table: 2312
cur table: 2308
epoch: 1000
next table: 2292
cur table: 2312
epoch: 1000
next table: 2321
cur table: 2292
epoch: 1000
next table: 2399
cur table: 2321
epoch: 1000
next table: 2375
cur table: 2399
epoch: 1000
next table: 2411
cur table: 2375
epoch: 1000
next table: 2392
cur table: 2411
epoch: 1000
next table: 2344
cur table: 2392
epoch: 1000
next table: 2403
cur table: 2344
epoch: 1000
next table: 2401
cur table: 2403
epoch: 1000
next table: 2403
cur table: 2401
epoch: 1000
next table: 2370
cur table: 2403
epoch: 1000
next table: 2312
cur table: 2370
epoch: 1000
next table: 2286
cur table: 2312
epoch: 1000
next table: 2339
cur table: 2286
epoch: 1000
next table: 2300
cur table: 2339
epoch: 1000
next table: 2315
cur table: 2300
epoch: 1000
next table: 2295
cur table: 2315
epoch: 1000
next table: 2352
cur table: 2295
epoch: 1000
next table: 2400
cur table: 2352
epoch: 1000
next table: 2402
cur table: 2400
epoch: 1000
next table: 2406
cur table: 2402
epoch: 1000
next table: 2423
cur table: 2406
epoch: 1000
next table: 2399
cur table: 2423
epoch: 1000
next table: 2353
cur table: 2399
epoch: 1000
next table: 2374
cur table: 2353
epoch: 1000
next table: 2333
[...]
next table: 2497
cur table: 2446
epoch: 1000
next table: 2483
cur table: 2497
epoch: 1000
next table: 2463
cur table: 2483
epoch: 1000
next table: 2462
cur table: 2463
epoch: 1000
next table: 2436
cur table: 2462
epoch: 1000
next table: 2458
cur table: 2436
epoch: 1000
next table: 2392
cur table: 2458
epoch: 1000
next table: 2418
cur table: 2392
epoch: 1000
next table: 2356
cur table: 2418
epoch: 1000
next table: 2386
cur table: 2356
epoch: 1000
next table: 2397
cur table: 2386
epoch: 1000
next table: 2410
cur table: 2397
epoch: 1000
next table: 2424
cur table: 2410
epoch: 1000
next table: 2438
cur table: 2424
epoch: 1000
next table: 2498
cur table: 2438
epoch: 1000
next table: 2499
cur table: 2498
epoch: 1000
next table: 2414
cur table: 2499
epoch: 1000
next table: 2365
cur table: 2414
epoch: 1000
next table: 2401
cur table: 2365
epoch: 1000
next table: 2312
cur table: 2401
epoch: 1000
next table: 2275
cur table: 2312
epoch: 1000
next table: 2413
cur table: 2275
epoch: 1000
next table: 2414
cur table: 2413
epoch: 1000
next table: 2389
cur table: 2414
epoch: 1000
next table: 2378
cur table: 2389
epoch: 1000
next table: 2414
cur table: 2378
epoch: 1000
next table: 2377
cur table: 2414
epoch: 1000
next table: 2418
cur table: 2377
epoch: 1000
next table: 2451
cur table: 2418
epoch: 1000
next table: 2479
cur table: 2451
epoch: 1000
next table: 2457
cur table: 2479
epoch: 1000
next table: 2449
cur table: 2457
epoch: 1000
next table: 2469
cur table: 2449
epoch: 1000
next table: 2441
cur table: 2469
epoch: 1000
next table: 2413
cur table: 2441
epoch: 1000
next table: 2435
cur table: 2413
epoch: 1000
next table: 2413
cur table: 2435
epoch: 1000
next table: 2375
cur table: 2413
epoch: 1000
next table: 2367
cur table: 2375
epoch: 1000
next table: 2381
cur table: 2367
epoch: 1000
next table: 2344
cur table: 2381
epoch: 1000
next table: 2395
cur table: 2344
epoch: 1000
next table: 2344
cur table: 2395
epoch: 1000
next table: 2352
cur table: 2344
epoch: 1000
next table: 2358
cur table: 2352
epoch: 1000
next table: 2405
cur table: 2358
epoch: 1000
next table: 2408
cur table: 2405
epoch: 1000
next table: 2348
cur table: 2408
epoch: 1000
next table: 2357
cur table: 2348
epoch: 1000
next table: 2287
cur table: 2357
epoch: 1000
next table: 2302
cur table: 2287
epoch: 1000
next table: 2335
cur table: 2302
epoch: 1000
next table: 2314
cur table: 2335
epoch: 1000
next table: 2429
cur table: 2314
epoch: 1000
next table: 2405
cur table: 2429
epoch: 1000
next table: 2397
cur table: 2405
Heartbeat CPU 0 instructions: 100000003 cycles: 117825207 heartbeat IPC: 0.491194 cumulative IPC: 0.483997 (Simulation time: 1 hr 16 min 59 sec) 
Finished CPU 0 instructions: 50000001 cycles: 103306433 cumulative IPC: 0.483997 (Simulation time: 1 hr 16 min 59 sec) 

ChampSim completed all CPUs

Region of Interest Statistics

CPU 0 cumulative IPC: 0.483997 instructions: 50000001 cycles: 103306433
ITLB TOTAL     ACCESS:    6766320  HIT:    6766320  MISS:          0  HIT %:        100  MISS %:          0   MPKI: 0
ITLB LOAD TRANSLATION ACCESS:    6766320  HIT:    6766320  MISS:          0  HIT %:        100  MISS %:          0   MPKI: 0
ITLB PREFETCH  REQUESTED:          0  ISSUED:          0  USEFUL:          0  USELESS:          0
ITLB USEFUL LOAD PREFETCHES:          0 PREFETCH ISSUED TO LOWER LEVEL:          0  ACCURACY: -nan
ITLB TIMELY PREFETCHES:          0 LATE PREFETCHES: 0 DROPPED PREFETCHES: 0
ITLB PREFETCHES SAME FILL-ORIGIN LEVEL: 0 DIFFERENT FILL-ORIGIN LEVEL: 0
ITLB AVERAGE MISS LATENCY: -nan cycles
ITLB RQ	ACCESS:    8712749	FORWARD:          0	MERGED:    1946428	TO_CACHE:    6766321

Revised Interactions: positive negative neutral
ITLB_interactions 0 0 0 -nan -nan -nan
DTLB TOTAL     ACCESS:    8741866  HIT:    8673440  MISS:      68426  HIT %:    99.2173  MISS %:   0.782739   MPKI: 1.36852
DTLB LOAD TRANSLATION ACCESS:    8741866  HIT:    8673440  MISS:      68426  HIT %:    99.2173  MISS %:   0.782739   MPKI: 1.36852
DTLB PREFETCH  REQUESTED:          0  ISSUED:          0  USEFUL:          0  USELESS:          0
DTLB USEFUL LOAD PREFETCHES:          0 PREFETCH ISSUED TO LOWER LEVEL:          0  ACCURACY: -nan
DTLB TIMELY PREFETCHES:          0 LATE PREFETCHES: 0 DROPPED PREFETCHES: 0
DTLB PREFETCHES SAME FILL-ORIGIN LEVEL: 0 DIFFERENT FILL-ORIGIN LEVEL: 0
DTLB AVERAGE MISS LATENCY: 122.12 cycles
DTLB RQ	ACCESS:   11975777	FORWARD:          0	MERGED:    3208181	TO_CACHE:    8767596

Revised Interactions: positive negative neutral
DTLB_interactions 0 0 0 -nan -nan -nan
STLB TOTAL     ACCESS:     426567  HIT:     389439  MISS:      37128  HIT %:    91.2961  MISS %:    8.70391   MPKI: 0.74256
STLB LOAD TRANSLATION ACCESS:      68426  HIT:      31298  MISS:      37128  HIT %:    45.7399  MISS %:    54.2601   MPKI: 0.74256
STLB TRANSLATION FROM L1D PREFETCHER ACCESS:     358141  HIT:     358141  MISS:          0  HIT %:        100  MISS %:          0   MPKI: 0
STLB PREFETCH  REQUESTED:          0  ISSUED:          0  USEFUL:          0  USELESS:          0
STLB USEFUL LOAD PREFETCHES:          0 PREFETCH ISSUED TO LOWER LEVEL:          0  ACCURACY: -nan
STLB TIMELY PREFETCHES:          0 LATE PREFETCHES: 0 DROPPED PREFETCHES: 0
STLB PREFETCHES SAME FILL-ORIGIN LEVEL: 0 DIFFERENT FILL-ORIGIN LEVEL: 0
STLB AVERAGE MISS LATENCY: 205.548 cycles
STLB RQ	ACCESS:     672604	FORWARD:          0	MERGED:     246037	TO_CACHE:     426567

Revised Interactions: positive negative neutral
STLB_interactions 0 0 0 -nan -nan -nan
STLB Hit, L1D data hit: 0
STLB Hit, L2C data hit: 0
STLB Hit, LLC data hit: 0
STLB Hit, LLC data miss: 0
STLB STLB hints to L2: 0
L1D TOTAL     ACCESS:   12323532  HIT:    8403741  MISS:    3919791  HIT %:    68.1926  MISS %:    31.8074   MPKI: 78.3958
L1D LOAD      ACCESS:    3968875  HIT:    3785879  MISS:     182996  HIT %:    95.3892  MISS %:    4.61078   MPKI: 3.65992
L1D RFO       ACCESS:    7828115  HIT:    4502326  MISS:    3325789  HIT %:    57.5148  MISS %:    42.4852   MPKI: 66.5158
L1D PREFETCH  ACCESS:     526542  HIT:     115536  MISS:     411006  HIT %:    21.9424  MISS %:    78.0576   MPKI: 8.22012
L1D PREFETCH  REQUESTED:    1238567  ISSUED:    1208368  USEFUL:     387790  USELESS:      23214
L1D USEFUL LOAD PREFETCHES:     387790 PREFETCH ISSUED TO LOWER LEVEL:     411219  ACCURACY: 94.3025
L1D TIMELY PREFETCHES:     387790 LATE PREFETCHES: 73383 DROPPED PREFETCHES: 0
L1D PREFETCHES SAME FILL-ORIGIN LEVEL: 411219 DIFFERENT FILL-ORIGIN LEVEL: 0
L1D AVERAGE MISS LATENCY: 397.712 cycles
L1D RQ	ACCESS:   12480594	FORWARD:          0	MERGED:    5715107	TO_CACHE:    4074338
L1D WQ	ACCESS:    9208484	FORWARD:    2691149	MERGED:    1307045	TO_CACHE:    7901439
L1D PQ	ACCESS:     604190	FORWARD:          0	MERGED:         12	TO_CACHE:     604178

Revised Interactions: positive negative neutral
L1D_interactions 0 0 0 -nan -nan -nan
L1D UNIQUE REGIONS ACCESSED: 0
L1D REGIONS CONFLICTS: 0
L1D Cross Page Prefetch Requests: 0
L1D Same Page Prefetch Requests: 1236276
L1D ROI Sum of L1D PQ occupancy: 629742359
L1D PREFETCHES PUSHED FROM L2C: 0
L1I TOTAL     ACCESS:    8712747  HIT:    8712747  MISS:          0  HIT %:        100  MISS %:          0   MPKI: 0
L1I LOAD      ACCESS:    8712747  HIT:    8712747  MISS:          0  HIT %:        100  MISS %:          0   MPKI: 0
L1I PREFETCH  REQUESTED:          0  ISSUED:          0  USEFUL:          0  USELESS:          0
L1I USEFUL LOAD PREFETCHES:          0 PREFETCH ISSUED TO LOWER LEVEL:          0  ACCURACY: -nan
L1I TIMELY PREFETCHES:          0 LATE PREFETCHES: 0 DROPPED PREFETCHES: 0
L1I PREFETCHES SAME FILL-ORIGIN LEVEL: 0 DIFFERENT FILL-ORIGIN LEVEL: 0
L1I AVERAGE MISS LATENCY: -nan cycles
L1I RQ	ACCESS:   12563967	FORWARD:          0	MERGED:    3851218	TO_CACHE:    8712749

Revised Interactions: positive negative neutral
L1I_interactions 0 0 0 -nan -nan -nan
BTB TOTAL     ACCESS:     896748  HIT:     896742  MISS:          6  HIT %:    99.9993  MISS %: 0.000669084   MPKI: 0.00012
BTB BRANCH_DIRECT_JUMP	ACCESS:     145480  HIT:     145479  MISS:          1
BTB BRANCH_INDIRECT	ACCESS:          0  HIT:          0  MISS:          0
BTB BRANCH_CONDITIONAL	ACCESS:     751268  HIT:     751263  MISS:          5
BTB BRANCH_DIRECT_CALL	ACCESS:          0  HIT:          0  MISS:          0
BTB BRANCH_INDIRECT_CALL	ACCESS:          0  HIT:          0  MISS:          0
BTB BRANCH_RETURN	ACCESS:          0  HIT:          0  MISS:          0
BTB BRANCH_OTHER ACCESS:          0  HIT:          0  MISS:          0

L2C TOTAL     ACCESS:    7933310  HIT:    5354883  MISS:    2578427  HIT %:    67.4987  MISS %:    32.5013   MPKI: 51.5685
L2C LOAD      ACCESS:     182996  HIT:     100606  MISS:      82390  HIT %:    54.9772  MISS %:    45.0228   MPKI: 1.6478
L2C DATA LOAD MPKI: 1.6478
L2C INSTRUCTION LOAD MPKI: 0
L2C RFO       ACCESS:    3325784  HIT:    1436992  MISS:    1888792  HIT %:    43.2076  MISS %:    56.7924   MPKI: 37.7758
L2C PREFETCH  ACCESS:    1061611  HIT:     549082  MISS:     512529  HIT %:    51.7216  MISS %:    48.2784   MPKI: 10.2506
L2C DATA PREFETCH MPKI: 10.2506
L2C INSTRUCTION PREFETCH MPKI: 0
L2C WRITEBACK ACCESS:    3325789  HIT:    3235919  MISS:      89870  HIT %:    97.2978  MISS %:    2.70222   MPKI: 1.7974
L2C LOAD TRANSLATION ACCESS:      37130  HIT:      32284  MISS:       4846  HIT %:    86.9486  MISS %:    13.0514   MPKI: 0.09692
L2C PREFETCH  REQUESTED:     978939  ISSUED:     978912  USEFUL:     100561  USELESS:     412165
L2C USEFUL LOAD PREFETCHES:     100561 PREFETCH ISSUED TO LOWER LEVEL:     526703  ACCURACY: 19.0925
L2C TIMELY PREFETCHES:     100561 LATE PREFETCHES: 14169 DROPPED PREFETCHES: 0
L2C PREFETCHES SAME FILL-ORIGIN LEVEL: 353667 DIFFERENT FILL-ORIGIN LEVEL: 0
L2C AVERAGE MISS LATENCY: 658.93 cycles
L2C RQ	ACCESS:    3545926	FORWARD:          0	MERGED:          0	TO_CACHE:    3545921
L2C WQ	ACCESS:    3325791	FORWARD:          5	MERGED:          0	TO_CACHE:    3325791
L2C PQ	ACCESS:    1389923	FORWARD:          0	MERGED:     168651	TO_CACHE:    1221272

Revised Interactions: positive negative neutral
L2C_interactions 97877 411668 273665 12.4969 52.5616 34.9415
L2C Instructions Evicting Data 0
L2C Translations Evicting Data 4835
L2C Data Evicting Data 2479098
L2C Instructions Evicting Instructions 0
L2C Translations Evicting Instructions 0
L2C Data Evicting Instructions 0
L2C Instructions Evicting Translations 0
L2C Translations Evicting Translations 11
L2C Data Evicting Translations 4613
L2C Dense regions hint from L2: 0
PSCL5 TOTAL     ACCESS:      37128  HIT:      37128  MISS:          0  HIT %:        100  MISS %:          0   MPKI: 0
PSCL5 LOAD TRANSLATION ACCESS:      37128  HIT:      37128  MISS:          0  HIT %:        100  MISS %:          0   MPKI: 0
PSCL5 PREFETCH  REQUESTED:          0  ISSUED:          0  USEFUL:          0  USELESS:          0
PSCL5 USEFUL LOAD PREFETCHES:          0 PREFETCH ISSUED TO LOWER LEVEL:          0  ACCURACY: -nan
PSCL5 TIMELY PREFETCHES:          0 LATE PREFETCHES: 0 DROPPED PREFETCHES: 0
PSCL5 PREFETCHES SAME FILL-ORIGIN LEVEL: 0 DIFFERENT FILL-ORIGIN LEVEL: 0

Revised Interactions: positive negative neutral
PSCL5_interactions 0 0 0 -nan -nan -nan
PSCL4 TOTAL     ACCESS:      37128  HIT:      37128  MISS:          0  HIT %:        100  MISS %:          0   MPKI: 0
PSCL4 LOAD TRANSLATION ACCESS:      37128  HIT:      37128  MISS:          0  HIT %:        100  MISS %:          0   MPKI: 0
PSCL4 PREFETCH  REQUESTED:          0  ISSUED:          0  USEFUL:          0  USELESS:          0
PSCL4 USEFUL LOAD PREFETCHES:          0 PREFETCH ISSUED TO LOWER LEVEL:          0  ACCURACY: -nan
PSCL4 TIMELY PREFETCHES:          0 LATE PREFETCHES: 0 DROPPED PREFETCHES: 0
PSCL4 PREFETCHES SAME FILL-ORIGIN LEVEL: 0 DIFFERENT FILL-ORIGIN LEVEL: 0

Revised Interactions: positive negative neutral
PSCL4_interactions 0 0 0 -nan -nan -nan
PSCL3 TOTAL     ACCESS:      37128  HIT:      37128  MISS:          0  HIT %:        100  MISS %:          0   MPKI: 0
PSCL3 LOAD TRANSLATION ACCESS:      37128  HIT:      37128  MISS:          0  HIT %:        100  MISS %:          0   MPKI: 0
PSCL3 PREFETCH  REQUESTED:          0  ISSUED:          0  USEFUL:          0  USELESS:          0
PSCL3 USEFUL LOAD PREFETCHES:          0 PREFETCH ISSUED TO LOWER LEVEL:          0  ACCURACY: -nan
PSCL3 TIMELY PREFETCHES:          0 LATE PREFETCHES: 0 DROPPED PREFETCHES: 0
PSCL3 PREFETCHES SAME FILL-ORIGIN LEVEL: 0 DIFFERENT FILL-ORIGIN LEVEL: 0

Revised Interactions: positive negative neutral
PSCL3_interactions 0 0 0 -nan -nan -nan
PSCL2 TOTAL     ACCESS:      37128  HIT:      37090  MISS:         38  HIT %:    99.8977  MISS %:   0.102349   MPKI: 0.00076
PSCL2 LOAD TRANSLATION ACCESS:      37128  HIT:      37090  MISS:         38  HIT %:    99.8977  MISS %:   0.102349   MPKI: 0.00076
PSCL2 PREFETCH  REQUESTED:          0  ISSUED:          0  USEFUL:          0  USELESS:          0
PSCL2 USEFUL LOAD PREFETCHES:          0 PREFETCH ISSUED TO LOWER LEVEL:          0  ACCURACY: -nan
PSCL2 TIMELY PREFETCHES:          0 LATE PREFETCHES: 0 DROPPED PREFETCHES: 0
PSCL2 PREFETCHES SAME FILL-ORIGIN LEVEL: 0 DIFFERENT FILL-ORIGIN LEVEL: 0

Revised Interactions: positive negative neutral
PSCL2_interactions 0 0 0 -nan -nan -nan
LLC TOTAL     ACCESS:    4378201  HIT:     102011  MISS:    4276190  HIT %:    2.32998  MISS %:      97.67   MPKI: 85.5238
LLC LOAD      ACCESS:      68221  HIT:        102  MISS:      68119  HIT %:   0.149514  MISS %:    99.8505   MPKI: 1.36238
LLC RFO       ACCESS:    1888685  HIT:      90021  MISS:    1798664  HIT %:    4.76633  MISS %:    95.2337   MPKI: 35.9733
LLC PREFETCH  ACCESS:     526698  HIT:          0  MISS:     526698  HIT %:          0  MISS %:        100   MPKI: 10.534
LLC WRITEBACK ACCESS:    1889751  HIT:      11888  MISS:    1877863  HIT %:   0.629078  MISS %:    99.3709   MPKI: 37.5573
LLC LOAD TRANSLATION ACCESS:       4846  HIT:          0  MISS:       4846  HIT %:          0  MISS %:        100   MPKI: 0.09692
LLC PREFETCH  REQUESTED:          0  ISSUED:          0  USEFUL:          0  USELESS:         44
LLC USEFUL LOAD PREFETCHES:          0 PREFETCH ISSUED TO LOWER LEVEL:     526703  ACCURACY: 0
LLC TIMELY PREFETCHES:          0 LATE PREFETCHES: 0 DROPPED PREFETCHES: 0
LLC PREFETCHES SAME FILL-ORIGIN LEVEL: 0 DIFFERENT FILL-ORIGIN LEVEL: 0
LLC AVERAGE MISS LATENCY: 381.204 cycles
LLC RQ	ACCESS:    1961869	FORWARD:          0	MERGED:          0	TO_CACHE:    1961762
LLC WQ	ACCESS:    1889753	FORWARD:        107	MERGED:          0	TO_CACHE:    1889753
LLC PQ	ACCESS:     526703	FORWARD:          0	MERGED:          0	TO_CACHE:     526703

Revised Interactions: positive negative neutral
LLC_interactions 0 0 0 -nan -nan -nan
LLC Dense regions hint to LLC: 0

RAW hits: 555830
Loads Generated: 13036427
Loads sent to L1D: 12480594
Stores Generated: 9208466
Stores sent to L1D: 9208484
Major fault: 0 Minor fault: 40146
Allocated PAGES: 40146

stream: 
stream:times selected: 3814671
stream:pref_filled: 193121
stream:pref_useful: 179611
stream:pref_late: 22453
stream:misses: 47492
stream:misses_by_poll: 0

CS: 
CS:times selected: 574400
CS:pref_filled: 353951
CS:pref_useful: 346968
CS:pref_late: 9541
CS:misses: 76953
CS:misses_by_poll: 1384

CPLX: 
CPLX:times selected: 3235494
CPLX:pref_filled: 432542
CPLX:pref_useful: 422898
CPLX:pref_late: 18442
CPLX:misses: 187620
CPLX:misses_by_poll: 1210

NL_L1: 
NL:times selected: 2666
NL:pref_filled: 204
NL:pref_useful: 169
NL:pref_late: 59
NL:misses: 283
NL:misses_by_poll: 0

total selections: 7627231
total_filled: 411006
total_useful: 387790
total_late: 50496
total_polluted: 2594
total_misses_after_warmup: 288459
conflicts: 69134
Degree Incremented Times: 107304
Degree Decremented Times: 0

L1 IP Table Write Accesses: 3683402
L1 IP Table Read Accesses: 3614268
L1 RST Write Accesses: 1841670
L1 RST Read Accesses: 3683340
L1 CSPT Write Accesses: 1841670
L1 CSPT Read Accesses: 5872725
L1 RR Filter Tag Write Accesses: 634389
L1 RR Filter Tag Read Accesses: 301066171
L1 IP Table Tag Write Accesses: 4074338
L1 IP Table Tag Read Accesses: 4074338
L1 RST Tag Write Accesses: 0
L1 RST Tag Read Accesses: 16535889
L1 RR Filter Write Accesses: 0
L1 RR Filter Read Accesses: 13513882
test: 614699
L2 IP Table Read Accesses: 1048444
L2 IP Table Write Accesses: 865539
L2 IP Table Tag Read Accesses: 524349
L2 IP Table Tag Write Accesses: 524349

DRAM Statistics
 CHANNEL 0
 RQ ROW_BUFFER_HIT:     255179  ROW_BUFFER_MISS:    2141195
 DBUS_CONGESTED:          0
 WQ ROW_BUFFER_HIT:     400404  ROW_BUFFER_MISS:    1477521  FULL:       3122

 AVG_CONGESTED_CYCLE: -
 All warmup complete: 2
Channel 0 Bank busy for read cycles: 0
Channel 0 Bank busy for write cycles: 0
Channel 0
Rank 0
0banks busy for read cycles: 4519
0banks busy for write cycles: 0
1banks busy for read cycles: 436510
1banks busy for write cycles: 172395
2banks busy for read cycles: 597815
2banks busy for write cycles: 172395
3banks busy for read cycles: 1055404
3banks busy for write cycles: 172395
4banks busy for read cycles: 2220099
4banks busy for write cycles: 172394
5banks busy for read cycles: 7311907
5banks busy for write cycles: 172405
6banks busy for read cycles: 12672519
6banks busy for write cycles: 176828
7banks busy for read cycles: 18035830
7banks busy for write cycles: 2156532
8banks busy for read cycles: 19647821
8banks busy for write cycles: 38128666

CPU 0 Branch Prediction Accuracy: 94.9835% MPKI: 0.8997 Average ROB Occupancy at Mispredict: 165.484
Branch types
NOT_BRANCH: 49102909 98.2058%
BRANCH_DIRECT_JUMP: 145480 0.29096%
BRANCH_INDIRECT: 0 0%
BRANCH_CONDITIONAL: 751268 1.50254%
BRANCH_DIRECT_CALL: 0 0%
BRANCH_INDIRECT_CALL: 0 0%
BRANCH_RETURN: 0 0%
BRANCH_OTHER: 0 0%

@sumon_overall_L1D    387790     73383     73383     23214    411006   1208368   1238567
@Sumon_Early_by_class_L1D     61211    174872    151660        30
@Sumon_Late_by_class_L1D     11960      9059     16957        30

@Sumon_Early_by_cycle_L1D     35443     31013     27564     57274     32098    153721     43624      7025        28         0         0         0
@Sumon_Late_by_cycle_L1D      2973      2540      2167      2960     18458      8909
@Sumon_Early_stream_L1D     10196      9902      7484     14445      6864     12275        45         0         0         0         0         0
@Sumon_Early_CS_L1D     12259     10842      9406     24275     12488     87904     17666        32         0         0         0         0
@Sumon_Early_CPLX_L1D     12986     10259     10666     18547     12739     53532     25911      6992        28         0         0         0
@Sumon_Late_stream_L1D       865       855       635       978      5749      2878
@Sumon_Late_CS_L1D       905       629       511       649      3647      2718
@Sumon_Late_CPLX_L1D      1202      1055      1020      1331      9042      3307
@sumon_overall_L2C    100561     14169         0    412165    512529    978912    978939
@Sumon_Early_by_class_L2C     36276     64272         0         0
@Sumon_Late_by_class_L2C     10792      3288         0         0

@Sumon_Early_by_cycle_L2C      8037      5115      5598     16560      4362     43504     17313        72         0         0         0         0
@Sumon_Late_by_cycle_L2C        89       395      1234       455      7140      4856
@Sumon_Early_stream_L2C      6605      4133      4070     11205      2333      7888        42         0         0         0         0         0
@Sumon_Early_CS_L2C      1431       982      1528      5353      2027     35611     17268        72         0         0         0         0
@Sumon_Early_CPLX_L2C         0         0         0         0         0         0         0         0         0         0         0         0
@Sumon_Late_stream_L2C         0       291       916       379      5752      3454
@Sumon_Late_CS_L2C         0       104       318        76      1388      1402
@Sumon_Late_CPLX_L2C         0         0         0         0         0         0
DRAM PAGES: 1048576
Allocated PAGES: 40146
