
*** ChampSim Multicore Out-of-Order Simulator ***

Warmup Instructions: 50000000
Simulation Instructions: 50000000
Number of CPUs: 1
LLC sets: 2048
LLC ways: 16
Off-chip DRAM Size: 4096 MB Channels: 1 Width: 64-bit Data Rate: 6400 MT/s
CPU 0 runs ../../biswa/SPEC2017Traces/620.omnetpp_s-141B.champsimtrace.xz
.xz
CPU 0 Bimodal branch predictor
BTB has LRU replacement policy
ITLB has LRU replacement policy
DTLB has LRU replacement policy
STLB has LRU replacement policy
L1I has LRU replacement policy
IP Table Entries: 256
L1D has LRU replacement policy
IP_Table L2 entries: 256
Initialize DRRIP state for L2C
epoch: 1000
next table: 2574
cur table: 7236
epoch: 1000
next table: 2195
cur table: 2574
epoch: 1000
next table: 2075
cur table: 2195
epoch: 1000
next table: 2095
cur table: 2075
epoch: 1000
next table: 1942
cur table: 2095
epoch: 1000
next table: 1937
cur table: 1942
epoch: 1000
next table: 1893
cur table: 1937
epoch: 1000
next table: 2044
cur table: 1893
epoch: 1000
next table: 1962
cur table: 2044
epoch: 1000
next table: 2062
cur table: 1962
epoch: 1000
next table: 1858
cur table: 2062
epoch: 1000
next table: 1920
cur table: 1858
epoch: 1000
next table: 1939
cur table: 1920
epoch: 1000
next table: 1931
cur table: 1939
epoch: 1000
next table: 1780
cur table: 1931
epoch: 1000
next table: 1963
cur table: 1780
epoch: 1000
next table: 2002
cur table: 1963
epoch: 1000
next table: 1931
cur table: 2002
epoch: 1000
next table: 1914
cur table: 1931
epoch: 1000
next table: 2008
cur table: 1914
epoch: 1000
next table: 2068
cur table: 2008
epoch: 1000
next table: 2018
cur table: 2068
epoch: 1000
next table: 1961
cur table: 2018
epoch: 1000
next table: 2040
cur table: 1961
epoch: 1000
next table: 1982
cur table: 2040
epoch: 1000
next table: 1943
cur table: 1982
epoch: 1000
next table: 3401
cur table: 18978
epoch: 1000
next table: 1963
cur table: 1943
epoch: 1000
next table: 1913
cur table: 1963
epoch: 1000
next table: 1841
cur table: 1913
epoch: 1000
next table: 2567
cur table: 3401
epoch: 1000
next table: 1969
cur table: 1841
epoch: 1000
next table: 1855
cur table: 1969
epoch: 1000
next table: 2167
cur table: 2567
epoch: 1000
next table: 2015
cur table: 1855
epoch: 1000
next table: 1942
cur table: 2015
epoch: 1000
next table: 2255
cur table: 2167
epoch: 1000
next table: 1954
cur table: 1942
epoch: 1000
next table: 1963
cur table: 1954
epoch: 1000
next table: 2190
cur table: 2255
epoch: 1000
next table: 1978
cur table: 1963
epoch: 1000
next table: 1954
cur table: 1978
epoch: 1000
next table: 2001
cur table: 2190
epoch: 1000
next table: 1868
cur table: 1954
epoch: 1000
next table: 1946
cur table: 2001
epoch: 1000
next table: 1984
cur table: 1868
epoch: 1000
next table: 1961
cur table: 1984
epoch: 1000
next table: 1940
cur table: 1946
epoch: 1000
next table: 2026
cur table: 1961
epoch: 1000
next table: 1975
cur table: 2026
epoch: 1000
next table: 1972
cur table: 1940
epoch: 1000
next table: 1966
cur table: 1975
epoch: 1000
next table: 1895
cur table: 1972
epoch: 1000
next table: 1878
cur table: 1966
epoch: 1000
next table: 2078
cur table: 1878
epoch: 1000
next table: 1975
cur table: 1895
epoch: 1000
next table: 1837
cur table: 2078
epoch: 1000
next table: 1861
cur table: 1975
epoch: 1000
next table: 1981
cur table: 1837
epoch: 1000
next table: 2010
cur table: 1981
epoch: 1000
next table: 1992
cur table: 1861
epoch: 1000
next table: 1965
cur table: 2010
epoch: 1000
next table: 1871
cur table: 1992
epoch: 1000
next table: 1951
cur table: 1965
epoch: 1000
next table: 1946
cur table: 1951
epoch: 1000
next table: 1942
cur table: 1871
epoch: 1000
next table: 2032
cur table: 1946
epoch: 1000
next table: 1858
cur table: 2032
epoch: 1000
next table: 1850
cur table: 1942
epoch: 1000
next table: 1893
cur table: 1858
epoch: 1000
next table: 1790
cur table: 1850
epoch: 1000
next table: 1958
cur table: 1893
epoch: 1000
next table: 1962
cur table: 1958
epoch: 1000
next table: 1897
cur table: 1790
epoch: 1000
next table: 1934
cur table: 1962
epoch: 1000
next table: 1896
cur table: 1897
epoch: 1000
next table: 1942
cur table: 1934
epoch: 1000
next table: 1890
cur table: 1942
epoch: 1000
next table: 1826
cur table: 1896
epoch: 1000
next table: 2004
cur table: 1890
epoch: 1000
next table: 1930
cur table: 1826
epoch: 1000
next table: 1888
cur table: 2004
epoch: 1000
next table: 1943
cur table: 1888
epoch: 1000
next table: 1786
cur table: 1930
epoch: 1000
next table: 1940
cur table: 1943
epoch: 1000
next table: 1815
cur table: 1786
epoch: 1000
next table: 1889
cur table: 1940
epoch: 1000
next table: 1783
cur table: 1815
epoch: 1000
next table: 1961
cur table: 1889
epoch: 1000
next table: 2118
cur table: 1961
epoch: 1000
next table: 1772
cur table: 1783
epoch: 1000
next table: 1975
cur table: 2118
epoch: 1000
next table: 1865
cur table: 1772
epoch: 1000
next table: 1942
cur table: 1975
epoch: 1000
next table: 1938
cur table: 1942
epoch: 1000
next table: 1868
cur table: 1865
epoch: 1000
next table: 1951
cur table: 1938
epoch: 1000
next table: 1767
cur table: 1868
epoch: 1000
next table: 2044
cur table: 1951
epoch: 1000
next table: 1873
cur table: 1767
epoch: 1000
next table: 1975
cur table: 2044
epoch: 1000
next table: 2034
cur table: 1975
epoch: 1000
next table: 1848
cur table: 1873
epoch: 1000
next table: 1978
cur table: 2034
epoch: 1000
next table: 1883
cur table: 1848
epoch: 1000
next table: 2012
cur table: 1978
epoch: 1000
next table: 2001
cur table: 2012
epoch: 1000
next table: 1893
cur table: 1883
epoch: 1000
next table: 1986
cur table: 2001
epoch: 1000
next table: 1871
cur table: 1893
epoch: 1000
next table: 2010
cur table: 1986
epoch: 1000
next table: 2037
cur table: 2010
epoch: 1000
next table: 1869
cur table: 1871
epoch: 1000
next table: 1955
cur table: 2037
epoch: 1000
next table: 1850
cur table: 1869
epoch: 1000
next table: 2012
cur table: 1955
epoch: 1000
next table: 1715
cur table: 1850
epoch: 1000
next table: 2032
cur table: 2012
epoch: 1000
next table: 1940
cur table: 2032
epoch: 1000
next table: 1768
cur table: 1715
epoch: 1000
next table: 2067
cur table: 1940
epoch: 1000
next table: 1946
cur table: 1768
epoch: 1000
next table: 1947
cur table: 2067
epoch: 1000
next table: 2007
cur table: 1947
epoch: 1000
next table: 1871
cur table: 1946
epoch: 1000
next table: 2042
cur table: 2007
epoch: 1000
next table: 2000
cur table: 1871
epoch: 1000
next table: 2021
cur table: 2042
epoch: 1000
next table: 1913
cur table: 2021
epoch: 1000
next table: 1786
cur table: 2000
epoch: 1000
next table: 1850
cur table: 1913
epoch: 1000
next table: 1794
cur table: 1786
epoch: 1000
next table: 2104
cur table: 1850
epoch: 1000
next table: 1941
cur table: 2104
epoch: 1000
next table: 1842
cur table: 1794
epoch: 1000
next table: 1919
cur table: 1941
epoch: 1000
next table: 1877
cur table: 1842
epoch: 1000
next table: 2004
cur table: 1919
epoch: 1000
next table: 1940
cur table: 2004
epoch: 1000
next table: 1769
cur table: 1877
epoch: 1000
next table: 1977
cur table: 1940
epoch: 1000
next table: 1879
cur table: 1769
epoch: 1000
next table: 1916
cur table: 1977
epoch: 1000
next table: 1916
cur table: 1916
epoch: 1000
next table: 1835
cur table: 1879
epoch: 1000
next table: 1939
cur table: 1916
epoch: 1000
next table: 1829
cur table: 1835
epoch: 1000
next table: 1976
cur table: 1939
epoch: 1000
next table: 1915
cur table: 1976
epoch: 1000
next table: 1913
cur table: 1829
epoch: 1000
next table: 1874
cur table: 1915
epoch: 1000
next table: 1822
cur table: 1913
epoch: 1000
next table: 1896
cur table: 1874
epoch: 1000
next table: 2011
cur table: 1896
epoch: 1000
next table: 1912
cur table: 1822
epoch: 1000
next table: 1912
cur table: 2011
epoch: 1000
next table: 1956
cur table: 1912
epoch: 1000
next table: 1974
cur table: 1912
epoch: 1000
next table: 1916
cur table: 1974
epoch: 1000
next table: 1860
cur table: 1956
epoch: 1000
next table: 1915
cur table: 1916
epoch: 1000
next table: 1917
cur table: 1860
epoch: 1000
next table: 1914
cur table: 1915
epoch: 1000
next table: 1792
cur table: 1914
epoch: 1000
next table: 1804
cur table: 1917
epoch: 1000
next table: 1857
cur table: 1792
epoch: 1000
next table: 1880
cur table: 1804
epoch: 1000
next table: 1865
cur table: 1857
epoch: 1000
next table: 2042
cur table: 1865
epoch: 1000
next table: 1849
cur table: 1880
epoch: 1000
next table: 1947
cur table: 2042
epoch: 1000
next table: 1865
cur table: 1849
epoch: 1000
next table: 1986
cur table: 1947
epoch: 1000
next table: 1938
cur table: 1986
epoch: 1000
next table: 1944
cur table: 1865
epoch: 1000
next table: 1882
cur table: 1938
epoch: 1000
next table: 2072
cur table: 1882
epoch: 1000
next table: 1885
cur table: 1944
epoch: 1000
next table: 1930
cur table: 2072
epoch: 1000
next table: 1833
cur table: 1885
epoch: 1000
next table: 1844
cur table: 1930
epoch: 1000
next table: 1730
cur table: 1833
epoch: 1000
next table: 1879
cur table: 1844
epoch: 1000
next table: 1749
cur table: 1730
epoch: 1000
next table: 1874
cur table: 1879
epoch: 1000
next table: 1746
cur table: 1749
epoch: 1000
next table: 1908
cur table: 1874
epoch: 1000
next table: 1722
cur table: 1746
epoch: 1000
next table: 1905
cur table: 1908
epoch: 1000
next table: 2012
cur table: 1905
epoch: 1000
next table: 2071
cur table: 1722
epoch: 1000
next table: 1959
cur table: 2012
epoch: 1000
next table: 2035
cur table: 1959
epoch: 1000
next table: 1811
cur table: 2071
epoch: 1000
next table: 1892
cur table: 2035
epoch: 1000
next table: 1960
cur table: 1892
epoch: 1000
next table: 2023
cur table: 1811
epoch: 1000
next table: 1921
cur table: 1960
epoch: 1000
next table: 2059
cur table: 2023
epoch: 1000
next table: 1944
cur table: 1921
epoch: 1000
next table: 1922
cur table: 1944
epoch: 1000
next table: 2041
cur table: 2059
epoch: 1000
next table: 1922
cur table: 1922
epoch: 1000
next table: 1834
cur table: 1922
epoch: 1000
next table: 2026
cur table: 2041
epoch: 1000
next table: 1892
cur table: 1834
epoch: 1000
next table: 1951
cur table: 1892
epoch: 1000
next table: 2007
cur table: 2026
epoch: 1000
next table: 1857
cur table: 1951
epoch: 1000
next table: 2008
cur table: 1857
epoch: 1000
next table: 2053
cur table: 2007
epoch: 1000
next table: 1964
cur table: 2008
epoch: 1000
next table: 2004
cur table: 2053
epoch: 1000
next table: 1879
cur table: 1964
epoch: 1000
next table: 1929
cur table: 1879
epoch: 1000
next table: 2168
cur table: 2004
epoch: 1000
next table: 1964
cur table: 1929
epoch: 1000
next table: 1822
cur table: 1964
epoch: 1000
next table: 1930
cur table: 2168
epoch: 1000
next table: 1947
cur table: 1822
epoch: 1000
next table: 1989
cur table: 1947
epoch: 1000
next table: 2082
cur table: 1930
epoch: 1000
next table: 1965
cur table: 1989
epoch: 1000
next table: 1871
cur table: 1965
epoch: 1000
next table: 1926
cur table: 2082
epoch: 1000
next table: 1890
cur table: 1871
epoch: 1000
next table: 1966
cur table: 1926
epoch: 1000
next table: 2066
cur table: 1890
epoch: 1000
next table: 1975
cur table: 2066
epoch: 1000
next table: 2085
cur table: 1966
epoch: 1000
next table: 1988
cur table: 1975
epoch: 1000
next table: 1919
cur table: 1988
epoch: 1000
next table: 1924
cur table: 2085
epoch: 1000
next table: 1874
cur table: 1919
epoch: 1000
next table: 1885
cur table: 1874
epoch: 1000
next table: 2089
cur table: 1924
epoch: 1000
next table: 1980
cur table: 1885
epoch: 1000
next table: 1839
cur table: 1980
epoch: 1000
next table: 1988
cur table: 2089
epoch: 1000
next table: 1980
cur table: 1839
epoch: 1000
next table: 2091
cur table: 1988
epoch: 1000
next table: 1951
cur table: 1980
epoch: 1000
next table: 1936
cur table: 1951
epoch: 1000
next table: 1982
cur table: 2091
epoch: 1000
next table: 1878
cur table: 1936
epoch: 1000
next table: 1882
cur table: 1878
epoch: 1000
next table: 2068
cur table: 1982
epoch: 1000
next table: 1982
cur table: 1882
epoch: 1000
next table: 1958
cur table: 1982
epoch: 1000
next table: 2069
cur table: 2068
epoch: 1000
next table: 2031
cur table: 1958
epoch: 1000
next table: 1886
cur table: 2031
epoch: 1000
next table: 2062
cur table: 2069
epoch: 1000
next table: 1896
cur table: 1886
epoch: 1000
next table: 1886
cur table: 1896
epoch: 1000
next table: 2022
cur table: 2062
epoch: 1000
next table: 2047
cur table: 1886
epoch: 1000
next table: 1994
cur table: 2022
epoch: 1000
next table: 1807
cur table: 2047
epoch: 1000
next table: 1956
cur table: 1807
epoch: 1000
next table: 2077
cur table: 1994
epoch: 1000
next table: 1914
cur table: 1956
epoch: 1000
next table: 1955
cur table: 1914
epoch: 1000
next table: 2136
cur table: 2077
epoch: 1000
next table: 1886
cur table: 1955
epoch: 1000
next table: 1954
cur table: 1886
epoch: 1000
next table: 2256
cur table: 2136
epoch: 1000
next table: 1985
cur table: 1954
epoch: 1000
next table: 1937
cur table: 1985
epoch: 1000
next table: 2247
cur table: 2256
epoch: 1000
next table: 1895
cur table: 1937
epoch: 1000
next table: 2078
cur table: 1895
epoch: 1000
next table: 1908
cur table: 2078
epoch: 1000
next table: 2146
cur table: 2247
epoch: 1000
next table: 1920
cur table: 1908
epoch: 1000
next table: 1824
cur table: 1920
epoch: 1000
next table: 2110
cur table: 2146
epoch: 1000
next table: 1923
cur table: 1824
epoch: 1000
next table: 1961
cur table: 1923
epoch: 1000
next table: 2189
cur table: 2110
epoch: 1000
next table: 1984
cur table: 1961
epoch: 1000
next table: 1782
cur table: 1984
epoch: 1000
next table: 2263
cur table: 2189
epoch: 1000
next table: 1930
cur table: 1782
epoch: 1000
next table: 1968
cur table: 1930
epoch: 1000
next table: 2207
cur table: 2263
epoch: 1000
next table: 1912
cur table: 1968
epoch: 1000
next table: 1998
cur table: 1912
epoch: 1000
next table: 2273
cur table: 2207
epoch: 1000
next table: 1930
cur table: 1998
epoch: 1000
next table: 2005
cur table: 1930
epoch: 1000
next table: 2187
cur table: 2273
epoch: 1000
next table: 1943
cur table: 2005
epoch: 1000
next table: 2074
cur table: 1943
epoch: 1000
next table: 2211
cur table: 2187
epoch: 1000
next table: 1951
cur table: 2074
epoch: 1000
next table: 1889
cur table: 1951
epoch: 1000
next table: 2171
cur table: 2211
epoch: 1000
next table: 1990
cur table: 1889
epoch: 1000
next table: 1839
cur table: 1990
epoch: 1000
next table: 2048
cur table: 2171
epoch: 1000
next table: 2067
cur table: 1839
epoch: 1000
next table: 2153
cur table: 2067
epoch: 1000
next table: 1935
cur table: 2048
epoch: 1000
next table: 1973
cur table: 2153
epoch: 1000
next table: 1885
cur table: 1973
epoch: 1000
next table: 2199
cur table: 1935
epoch: 1000
next table: 2100
cur table: 1885
epoch: 1000
next table: 1896
cur table: 2100
epoch: 1000
next table: 2144
cur table: 2199
epoch: 1000
next table: 1930
cur table: 1896
epoch: 1000
next table: 1950
cur table: 1930
epoch: 1000
next table: 2126
cur table: 2144
epoch: 1000
next table: 1915
cur table: 1950
epoch: 1000
next table: 2000
cur table: 1915
epoch: 1000
next table: 2207
cur table: 2126
epoch: 1000
next table: 1912
cur table: 2000
epoch: 1000
next table: 1919
cur table: 1912
epoch: 1000
next table: 2405
cur table: 2207
epoch: 1000
next table: 1989
cur table: 1919
epoch: 1000
next table: 1917
cur table: 1989
epoch: 1000
next table: 1960
cur table: 1917
epoch: 1000
next table: 2416
cur table: 2405
epoch: 1000
next table: 1953
cur table: 1960
epoch: 1000
next table: 1801
cur table: 1953
epoch: 1000
next table: 2252
cur table: 2416
epoch: 1000
next table: 1915
cur table: 1801
epoch: 1000
next table: 1940
cur table: 1915
epoch: 1000
next table: 2396
cur table: 2252
epoch: 1000
next table: 1974
cur table: 1940
epoch: 1000
next table: 1769
cur table: 1974
epoch: 1000
next table: 1856
cur table: 1769
epoch: 1000
next table: 2343
cur table: 2396
epoch: 1000
next table: 2072
cur table: 1856
epoch: 1000
next table: 1934
cur table: 2072
epoch: 1000
next table: 2319
cur table: 2343
epoch: 1000
next table: 1935
cur table: 1934
epoch: 1000
next table: 1924
cur table: 1935
epoch: 1000
next table: 2292
cur table: 2319
epoch: 1000
next table: 1882
cur table: 1924
epoch: 1000
next table: 1885
cur table: 1882
epoch: 1000
next table: 2000
cur table: 1885
epoch: 1000
next table: 2353
cur table: 2292
epoch: 1000
next table: 1922
cur table: 2000
epoch: 1000
next table: 1878
cur table: 1922
epoch: 1000
next table: 2336
cur table: 2353
epoch: 1000
next table: 1902
cur table: 1878
epoch: 1000
next table: 1989
cur table: 1902
epoch: 1000
next table: 2297
cur table: 2336
epoch: 1000
next table: 2005
cur table: 1989
epoch: 1000
next table: 2027
cur table: 2005
epoch: 1000
next table: 2303
cur table: 2297
epoch: 1000
next table: 1932
cur table: 2027
epoch: 1000
next table: 2092
cur table: 1932
epoch: 1000
next table: 1900
cur table: 2092
epoch: 1000
next table: 2339
cur table: 2303
epoch: 1000
next table: 1931
cur table: 1900
epoch: 1000
next table: 1798
cur table: 1931
epoch: 1000
next table: 2293
cur table: 2339
epoch: 1000
next table: 1971
cur table: 1798
epoch: 1000
next table: 1932
cur table: 1971
epoch: 1000
next table: 2290
cur table: 2293
epoch: 1000
next table: 1912
cur table: 1932
epoch: 1000
next table: 1940
cur table: 1912
epoch: 1000
next table: 1979
cur table: 1940
epoch: 1000
next table: 2357
cur table: 2290
epoch: 1000
next table: 1966
cur table: 1979
epoch: 1000
next table: 1852
cur table: 1966
epoch: 1000
next table: 2278
cur table: 2357
epoch: 1000
next table: 2087
cur table: 1852
epoch: 1000
next table: 1950
cur table: 2087
epoch: 1000
next table: 2495
cur table: 2278
epoch: 1000
next table: 1950
cur table: 1950
epoch: 1000
next table: 1962
cur table: 1950
epoch: 1000
next table: 1988
cur table: 1962
epoch: 1000
next table: 2357
cur table: 2495
epoch: 1000
next table: 1999
cur table: 1988
epoch: 1000
next table: 1989
cur table: 1999
epoch: 1000
next table: 2613
cur table: 2357
epoch: 1000
next table: 1967
cur table: 1989
epoch: 1000
next table: 1944
cur table: 1967
epoch: 1000
next table: 1899
cur table: 1944
epoch: 1000
next table: 2230
cur table: 2613
epoch: 1000
next table: 1918
cur table: 1899
epoch: 1000
next table: 2057
cur table: 1918
Heartbeat CPU 0 instructions: 10000001 cycles: 3918587 heartbeat IPC: 2.55194 cumulative IPC: 2.55194 (Simulation time: 0 hr 6 min 19 sec) 
epoch: 1000
next table: 2425
cur table: 2230
epoch: 1000
next table: 1966
cur table: 2057
epoch: 1000
next table: 1884
cur table: 1966
epoch: 1000
next table: 2416
cur table: 2425
epoch: 1000
next table: 1955
cur table: 1884
epoch: 1000
next table: 1969
cur table: 1955
epoch: 1000
next table: 2011
cur table: 1969
epoch: 1000
next table: 2513
cur table: 2416
epoch: 1000
next table: 1966
cur table: 2011
epoch: 1000
next table: 1954
cur table: 1966
epoch: 1000
next table: 2191
cur table: 2513
epoch: 1000
next table: 1941
cur table: 1954
epoch: 1000
next table: 1943
cur table: 1941
epoch: 1000
next table: 2306
cur table: 2191
epoch: 1000
next table: 1976
cur table: 1943
epoch: 1000
next table: 1998
cur table: 1976
epoch: 1000
next table: 1897
cur table: 1998
epoch: 1000
next table: 2478
cur table: 2306
epoch: 1000
next table: 1918
cur table: 1897
epoch: 1000
next table: 1918
cur table: 1918
epoch: 1000
next table: 2385
cur table: 2478
epoch: 1000
next table: 1982
cur table: 1918
epoch: 1000
next table: 1890
cur table: 1982
epoch: 1000
next table: 2016
cur table: 1890
epoch: 1000
next table: 2382
cur table: 2385
epoch: 1000
next table: 1972
cur table: 2016
epoch: 1000
next table: 2020
cur table: 1972
epoch: 1000
next table: 2413
cur table: 2382
epoch: 1000
next table: 2015
cur table: 2020
epoch: 1000
next table: 1957
cur table: 2015
epoch: 1000
next table: 2338
cur table: 2413
epoch: 1000
next table: 2012
cur table: 1957
epoch: 1000
next table: 1886
cur table: 2012
epoch: 1000
next table: 1757
cur table: 1886
epoch: 1000
next table: 2492
cur table: 2338
epoch: 1000
next table: 1790
cur table: 1757
epoch: 1000
next table: 1913
cur table: 1790
epoch: 1000
next table: 2276
cur table: 2492
epoch: 1000
next table: 2047
cur table: 1913
epoch: 1000
next table: 1945
cur table: 2047
epoch: 1000
next table: 1814
cur table: 1945
epoch: 1000
next table: 2552
cur table: 2276
epoch: 1000
next table: 1827
cur table: 1814
epoch: 1000
next table: 2008
cur table: 1827
epoch: 1000
next table: 2016
cur table: 2008
epoch: 1000
next table: 2403
cur table: 2552
epoch: 1000
next table: 1903
cur table: 2016
epoch: 1000
next table: 1912
cur table: 1903
epoch: 1000
next table: 2323
cur table: 2403
epoch: 1000
next table: 1951
cur table: 1912
epoch: 1000
next table: 2030
cur table: 1951
epoch: 1000
next table: 2384
cur table: 2323
epoch: 1000
next table: 2007
cur table: 2030
epoch: 1000
next table: 1894
cur table: 2007
epoch: 1000
next table: 1939
cur table: 1894
epoch: 1000
next table: 2397
cur table: 2384
epoch: 1000
next table: 1993
cur table: 1939
epoch: 1000
next table: 1846
cur table: 1993
epoch: 1000
next table: 2539
cur table: 2397
epoch: 1000
next table: 1911
cur table: 1846
epoch: 1000
next table: 2035
cur table: 1911
epoch: 1000
next table: 1874
cur table: 2035
epoch: 1000
next table: 2234
cur table: 2539
epoch: 1000
next table: 1851
cur table: 1874
epoch: 1000
next table: 1924
cur table: 1851
epoch: 1000
next table: 2424
cur table: 2234
epoch: 1000
next table: 2135
cur table: 1924
epoch: 1000
next table: 1778
cur table: 2135
epoch: 1000
next table: 2003
cur table: 1778
epoch: 1000
next table: 2483
cur table: 2424
epoch: 1000
next table: 1931
cur table: 2003
epoch: 1000
next table: 1994
cur table: 1931
epoch: 1000
next table: 1914
cur table: 1994
epoch: 1000
next table: 2769
cur table: 2483
epoch: 1000
next table: 1877
cur table: 1914
epoch: 1000
next table: 1821
cur table: 1877
epoch: 1000
next table: 1985
cur table: 1821
epoch: 1000
next table: 2475
cur table: 2769
epoch: 1000
next table: 1967
cur table: 1985
epoch: 1000
next table: 2016
cur table: 1967
epoch: 1000
next table: 2419
cur table: 2475
epoch: 1000
next table: 1952
cur table: 2016
epoch: 1000
next table: 1810
cur table: 1952
epoch: 1000
next table: 1828
cur table: 1810
epoch: 1000
next table: 2682
cur table: 2419
epoch: 1000
next table: 1915
cur table: 1828
epoch: 1000
next table: 1881
cur table: 1915
epoch: 1000
next table: 2050
cur table: 1881
epoch: 1000
next table: 2598
cur table: 2682
epoch: 1000
next table: 2010
cur table: 2050
epoch: 1000
next table: 1923
cur table: 2010
epoch: 1000
next table: 2336
cur table: 2598
epoch: 1000
next table: 1932
cur table: 1923
epoch: 1000
next table: 1916
cur table: 1932
epoch: 1000
next table: 1974
cur table: 1916
epoch: 1000
next table: 2464
cur table: 2336
epoch: 1000
next table: 1998
cur table: 1974
epoch: 1000
next table: 1977
cur table: 1998
epoch: 1000
next table: 2500
cur table: 2464
epoch: 1000
next table: 1989
cur table: 1977
epoch: 1000
next table: 1754
cur table: 1989
epoch: 1000
next table: 1873
cur table: 1754
epoch: 1000
next table: 2505
cur table: 2500
epoch: 1000
next table: 2156
cur table: 1873
epoch: 1000
next table: 1933
cur table: 2156
epoch: 1000
next table: 1898
cur table: 1933
epoch: 1000
next table: 2503
cur table: 2505
epoch: 1000
next table: 1871
cur table: 1898
epoch: 1000
next table: 1923
cur table: 1871
epoch: 1000
next table: 2515
cur table: 2503
epoch: 1000
next table: 2040
cur table: 1923
epoch: 1000
next table: 1866
cur table: 2040
epoch: 1000
next table: 1924
cur table: 1866
epoch: 1000
next table: 2523
cur table: 2515
epoch: 1000
next table: 1927
cur table: 1924
epoch: 1000
next table: 1902
cur table: 1927
epoch: 1000
next table: 1904
cur table: 1902
epoch: 1000
next table: 2371
cur table: 2523
epoch: 1000
next table: 1872
cur table: 1904
epoch: 1000
next table: 2127
cur table: 1872
epoch: 1000
next table: 2589
cur table: 2371
epoch: 1000
next table: 1914
cur table: 2127
epoch: 1000
next table: 1945
cur table: 1914
epoch: 1000
next table: 1970
cur table: 1945
epoch: 1000
next table: 2766
cur table: 2589
epoch: 1000
next table: 1859
cur table: 1970
epoch: 1000
next table: 1841
cur table: 1859
epoch: 1000
next table: 1882
cur table: 1841
epoch: 1000
next table: 2964
cur table: 2766
epoch: 1000
next table: 2193
cur table: 1882
epoch: 1000
next table: 1993
cur table: 2193
epoch: 1000
next table: 1875
cur table: 1993
epoch: 1000
next table: 2587
cur table: 2964
epoch: 1000
next table: 1978
cur table: 1875
epoch: 1000
next table: 1974
cur table: 1978
epoch: 1000
next table: 1924
cur table: 1974
epoch: 1000
next table: 2672
cur table: 2587
epoch: 1000
next table: 2071
cur table: 1924
epoch: 1000
next table: 1973
cur table: 2071
epoch: 1000
next table: 2554
cur table: 2672
epoch: 1000
next table: 1961
cur table: 1973
epoch: 1000
next table: 1951
cur table: 1961
epoch: 1000
next table: 1850
cur table: 1951
epoch: 1000
next table: 2560
cur table: 2554
epoch: 1000
next table: 1924
cur table: 1850
epoch: 1000
next table: 2017
cur table: 1924
epoch: 1000
next table: 1993
cur table: 2017
epoch: 1000
next table: 2647
cur table: 2560
epoch: 1000
next table: 1940
cur table: 1993
epoch: 1000
next table: 1993
cur table: 1940
epoch: 1000
next table: 1966
cur table: 1993
epoch: 1000
next table: 2543
cur table: 2647
epoch: 1000
next table: 1986
cur table: 1966
epoch: 1000
next table: 1959
cur table: 1986
epoch: 1000
next table: 1954
cur table: 1959
epoch: 1000
next table: 2827
cur table: 2543
epoch: 1000
next table: 1876
cur table: 1954
epoch: 1000
next table: 1911
cur table: 1876
epoch: 1000
next table: 2010
cur table: 1911
epoch: 1000
next table: 2667
cur table: 2827
epoch: 1000
next table: 1962
cur table: 2010
epoch: 1000
next table: 2017
cur table: 1962
epoch: 1000
next table: 2571
cur table: 2667
epoch: 1000
next table: 1853
cur table: 2017
epoch: 1000
next table: 1994
cur table: 1853
epoch: 1000
next table: 2009
cur table: 1994
epoch: 1000
next table: 2687
cur table: 2571
epoch: 1000
next table: 1948
cur table: 2009
epoch: 1000
next table: 1893
cur table: 1948
epoch: 1000
next table: 1982
cur table: 1893
epoch: 1000
next table: 2552
cur table: 2687
epoch: 1000
next table: 1980
cur table: 1982
epoch: 1000
next table: 1920
cur table: 1980
epoch: 1000
next table: 2437
cur table: 2552
epoch: 1000
next table: 2003
cur table: 1920
epoch: 1000
next table: 2003
cur table: 2003
epoch: 1000
next table: 1975
cur table: 2003
epoch: 1000
next table: 2586
cur table: 2437
epoch: 1000
next table: 1931
cur table: 1975
epoch: 1000
next table: 1837
cur table: 1931
epoch: 1000
next table: 1971
cur table: 1837
epoch: 1000
next table: 2473
cur table: 2586
epoch: 1000
next table: 1951
cur table: 1971
epoch: 1000
next table: 1915
cur table: 1951
epoch: 1000
next table: 2126
cur table: 1915
epoch: 1000
next table: 2564
cur table: 2473
epoch: 1000
next table: 1996
cur table: 2126
epoch: 1000
next table: 1941
cur table: 1996
epoch: 1000
next table: 2608
cur table: 2564
epoch: 1000
next table: 2034
cur table: 1941
epoch: 1000
next table: 1923
cur table: 2034
epoch: 1000
next table: 1911
cur table: 1923
epoch: 1000
next table: 2774
cur table: 2608
epoch: 1000
next table: 1954
cur table: 1911
epoch: 1000
next table: 2010
cur table: 1954
epoch: 1000
next table: 1918
cur table: 2010
epoch: 1000
next table: 2401
cur table: 2774
epoch: 1000
next table: 1914
cur table: 1918
epoch: 1000
next table: 1850
cur table: 1914
epoch: 1000
next table: 2073
cur table: 1850
epoch: 1000
next table: 2461
cur table: 2401
epoch: 1000
next table: 1946
cur table: 2073
epoch: 1000
next table: 1945
cur table: 1946
epoch: 1000
next table: 2017
cur table: 1945
epoch: 1000
next table: 2741
cur table: 2461
epoch: 1000
next table: 1876
cur table: 2017
epoch: 1000
next table: 1938
cur table: 1876
epoch: 1000
next table: 1944
cur table: 1938
epoch: 1000
next table: 2730
cur table: 2741
epoch: 1000
next table: 2031
cur table: 1944
epoch: 1000
next table: 1945
cur table: 2031
epoch: 1000
next table: 2604
cur table: 2730
epoch: 1000
next table: 1930
cur table: 1945
epoch: 1000
next table: 1930
cur table: 1930
epoch: 1000
next table: 2031
cur table: 1930
epoch: 1000
next table: 2729
cur table: 2604
epoch: 1000
next table: 1827
cur table: 2031
epoch: 1000
next table: 2109
cur table: 1827
epoch: 1000
next table: 1991
cur table: 2109
epoch: 1000
next table: 2286
cur table: 2729
epoch: 1000
next table: 1977
cur table: 1991
epoch: 1000
next table: 1880
cur table: 1977
epoch: 1000
next table: 1929
cur table: 1880
epoch: 1000
next table: 2707
cur table: 2286
epoch: 1000
next table: 1894
cur table: 1929
epoch: 1000
next table: 1846
cur table: 1894
epoch: 1000
next table: 2595
cur table: 2707
epoch: 1000
next table: 1913
cur table: 1846
epoch: 1000
next table: 1975
cur table: 1913
epoch: 1000
next table: 1896
cur table: 1975
epoch: 1000
next table: 2520
cur table: 2595
epoch: 1000
next table: 1904
cur table: 1896
epoch: 1000
next table: 1904
cur table: 1904
epoch: 1000
next table: 2082
cur table: 1904
epoch: 1000
next table: 2626
cur table: 2520
epoch: 1000
next table: 1991
cur table: 2082
epoch: 1000
next table: 1940
cur table: 1991
epoch: 1000
next table: 1912
cur table: 1940
epoch: 1000
next table: 2632
cur table: 2626
epoch: 1000
next table: 1918
cur table: 1912
epoch: 1000
next table: 2034
cur table: 1918
epoch: 1000
next table: 2630
cur table: 2632
epoch: 1000
next table: 1984
cur table: 2034
epoch: 1000
next table: 1920
cur table: 1984
epoch: 1000
next table: 1841
cur table: 1920
epoch: 1000
next table: 2559
cur table: 2630
epoch: 1000
next table: 1993
cur table: 1841
epoch: 1000
next table: 1969
cur table: 1993
epoch: 1000
next table: 1967
cur table: 1969
epoch: 1000
next table: 2613
cur table: 2559
epoch: 1000
next table: 1932
cur table: 1967
epoch: 1000
next table: 2071
cur table: 1932
epoch: 1000
next table: 1954
cur table: 2071
epoch: 1000
next table: 2601
cur table: 2613
epoch: 1000
next table: 1988
cur table: 1954
epoch: 1000
next table: 1912
cur table: 1988
epoch: 1000
next table: 2466
cur table: 2601
epoch: 1000
next table: 1877
cur table: 1912
epoch: 1000
next table: 1842
cur table: 1877
epoch: 1000
next table: 2017
cur table: 1842
epoch: 1000
next table: 2554
cur table: 2466
epoch: 1000
next table: 2009
cur table: 2017
epoch: 1000
next table: 1914
cur table: 2009
epoch: 1000
next table: 2056
cur table: 1914
epoch: 1000
next table: 2641
cur table: 2554
epoch: 1000
next table: 1984
cur table: 2056
epoch: 1000
next table: 1932
cur table: 1984
epoch: 1000
next table: 2550
cur table: 2641
epoch: 1000
next table: 2004
cur table: 1932
epoch: 1000
next table: 1980
cur table: 2004
epoch: 1000
next table: 1935
cur table: 1980
epoch: 1000
next table: 1795
cur table: 1935
epoch: 1000
next table: 2849
cur table: 2550
epoch: 1000
next table: 1865
cur table: 1795
epoch: 1000
next table: 2139
cur table: 1865
epoch: 1000
next table: 1984
cur table: 2139
epoch: 1000
next table: 2948
cur table: 2849
epoch: 1000
next table: 1940
cur table: 1984
epoch: 1000
next table: 2005
cur table: 1940
epoch: 1000
next table: 1861
cur table: 2005
epoch: 1000
next table: 2685
cur table: 2948
epoch: 1000
next table: 1977
cur table: 1861
epoch: 1000
next table: 1952
cur table: 1977
epoch: 1000
next table: 2632
cur table: 2685
epoch: 1000
next table: 1984
cur table: 1952
epoch: 1000
next table: 1974
cur table: 1984
epoch: 1000
next table: 1886
cur table: 1974
epoch: 1000
next table: 2598
cur table: 2632
epoch: 1000
next table: 1925
cur table: 1886
epoch: 1000
next table: 1979
cur table: 1925
epoch: 1000
next table: 2010
cur table: 1979
epoch: 1000
next table: 2638
cur table: 2598
epoch: 1000
next table: 1995
cur table: 2010
epoch: 1000
next table: 2005
cur table: 1995
epoch: 1000
next table: 2392
cur table: 2638
epoch: 1000
next table: 1969
cur table: 2005
epoch: 1000
next table: 1948
cur table: 1969
epoch: 1000
next table: 2038
cur table: 1948
epoch: 1000
next table: 2580
cur table: 2392
epoch: 1000
next table: 1917
cur table: 2038
epoch: 1000
next table: 1923
cur table: 1917
epoch: 1000
next table: 1974
cur table: 1923
epoch: 1000
next table: 1985
cur table: 1974
epoch: 1000
next table: 2946
cur table: 2580
epoch: 1000
next table: 1977
cur table: 1985
epoch: 1000
next table: 1922
cur table: 1977
epoch: 1000
next table: 2510
cur table: 2946
epoch: 1000
next table: 1991
cur table: 1922
epoch: 1000
next table: 1880
cur table: 1991
epoch: 1000
next table: 2006
cur table: 1880
epoch: 1000
next table: 2666
cur table: 2510
epoch: 1000
next table: 1905
cur table: 2006
epoch: 1000
next table: 1932
cur table: 1905
epoch: 1000
next table: 1932
cur table: 1932
epoch: 1000
next table: 2399
cur table: 2666
epoch: 1000
next table: 1984
cur table: 1932
epoch: 1000
next table: 1912
cur table: 1984
epoch: 1000
next table: 2286
cur table: 2399
epoch: 1000
next table: 1963
cur table: 1912
epoch: 1000
next table: 1897
cur table: 1963
epoch: 1000
next table: 1967
cur table: 1897
epoch: 1000
next table: 2391
cur table: 2286
epoch: 1000
next table: 1889
cur table: 1967
epoch: 1000
next table: 1721
cur table: 1889
epoch: 1000
next table: 2159
cur table: 2391
epoch: 1000
next table: 1674
cur table: 1721
epoch: 1000
next table: 1633
cur table: 1674
epoch: 1000
next table: 2144
cur table: 2159
epoch: 1000
next table: 1740
cur table: 1633
epoch: 1000
next table: 1737
cur table: 1740
epoch: 1000
next table: 1733
cur table: 1737
epoch: 1000
next table: 2213
cur table: 2144
epoch: 1000
next table: 1813
cur table: 1733
epoch: 1000
next table: 1810
cur table: 1813
epoch: 1000
next table: 1826
cur table: 1810
epoch: 1000
next table: 2625
cur table: 2213
epoch: 1000
next table: 1858
cur table: 1826
epoch: 1000
next table: 1869
cur table: 1858
epoch: 1000
next table: 2585
cur table: 2625
epoch: 1000
next table: 1818
cur table: 1869
epoch: 1000
next table: 1841
cur table: 1818
epoch: 1000
next table: 1850
cur table: 1841
epoch: 1000
next table: 2536
cur table: 2585
epoch: 1000
next table: 1913
cur table: 1850
epoch: 1000
next table: 1950
cur table: 1913
epoch: 1000
next table: 1910
cur table: 1950
epoch: 1000
next table: 2766
cur table: 2536
epoch: 1000
next table: 1992
cur table: 1910
epoch: 1000
next table: 1954
cur table: 1992
epoch: 1000
next table: 1882
cur table: 1954
epoch: 1000
next table: 2729
cur table: 2766
epoch: 1000
next table: 1836
cur table: 1882
epoch: 1000
next table: 1922
cur table: 1836
epoch: 1000
next table: 1944
cur table: 1922
epoch: 1000
next table: 2720
cur table: 2729
epoch: 1000
next table: 1889
cur table: 1944
epoch: 1000
next table: 1932
cur table: 1889
epoch: 1000
next table: 1927
cur table: 1932
epoch: 1000
next table: 2663
cur table: 2720
epoch: 1000
next table: 1931
cur table: 1927
epoch: 1000
next table: 1929
cur table: 1931
epoch: 1000
next table: 2027
cur table: 1929
epoch: 1000
next table: 2698
cur table: 2663
epoch: 1000
next table: 1948
cur table: 2027
epoch: 1000
next table: 1872
cur table: 1948
epoch: 1000
next table: 1998
cur table: 1872
epoch: 1000
next table: 2779
cur table: 2698
epoch: 1000
next table: 2002
cur table: 1998
epoch: 1000
next table: 1989
cur table: 2002
epoch: 1000
next table: 1887
cur table: 1989
epoch: 1000
next table: 2659
cur table: 2779
epoch: 1000
next table: 1866
cur table: 1887
epoch: 1000
next table: 1999
cur table: 1866
epoch: 1000
next table: 1923
cur table: 1999
Heartbeat CPU 0 instructions: 20000003 cycles: 7849295 heartbeat IPC: 2.54407 cumulative IPC: 2.548 (Simulation time: 0 hr 11 min 52 sec) 
epoch: 1000
next table: 2724
cur table: 2659
epoch: 1000
next table: 1992
cur table: 1923
epoch: 1000
next table: 1955
cur table: 1992
epoch: 1000
next table: 1930
cur table: 1955
epoch: 1000
next table: 2679
cur table: 2724
epoch: 1000
next table: 1941
cur table: 1930
epoch: 1000
next table: 2016
cur table: 1941
epoch: 1000
next table: 2007
cur table: 2016
epoch: 1000
next table: 2781
cur table: 2679
epoch: 1000
next table: 2032
cur table: 2007
epoch: 1000
next table: 1966
cur table: 2032
epoch: 1000
next table: 1939
cur table: 1966
epoch: 1000
next table: 2613
cur table: 2781
epoch: 1000
next table: 1915
cur table: 1939
epoch: 1000
next table: 1976
cur table: 1915
epoch: 1000
next table: 1995
cur table: 1976
epoch: 1000
next table: 2837
cur table: 2613
epoch: 1000
next table: 2022
cur table: 1995
epoch: 1000
next table: 1878
cur table: 2022
epoch: 1000
next table: 1910
cur table: 1878
epoch: 1000
next table: 2714
cur table: 2837
epoch: 1000
next table: 1921
cur table: 1910
epoch: 1000
next table: 1919
cur table: 1921
epoch: 1000
next table: 2063
cur table: 1919
epoch: 1000
next table: 2588
cur table: 2714
epoch: 1000
next table: 2007
cur table: 2063
epoch: 1000
next table: 1860
cur table: 2007
epoch: 1000
next table: 2466
cur table: 2588
epoch: 1000
next table: 1955
cur table: 1860
epoch: 1000
next table: 2002
cur table: 1955
epoch: 1000
next table: 2012
cur table: 2002
epoch: 1000
next table: 2777
cur table: 2466
epoch: 1000
next table: 1945
cur table: 2012
epoch: 1000
next table: 1878
cur table: 1945
epoch: 1000
next table: 1923
cur table: 1878
epoch: 1000
next table: 2419
cur table: 2777
epoch: 1000
next table: 2071
cur table: 1923
epoch: 1000
next table: 1983
cur table: 2071
epoch: 1000
next table: 1963
cur table: 1983
epoch: 1000
next table: 2694
cur table: 2419
epoch: 1000
next table: 1922
cur table: 1963
epoch: 1000
next table: 1966
cur table: 1922
epoch: 1000
next table: 2071
cur table: 1966
epoch: 1000
next table: 2837
cur table: 2694
epoch: 1000
next table: 1771
cur table: 2071
epoch: 1000
next table: 1963
cur table: 1771
epoch: 1000
next table: 1896
cur table: 1963
epoch: 1000
next table: 2967
cur table: 2837
epoch: 1000
next table: 1967
cur table: 1896
epoch: 1000
next table: 1949
cur table: 1967
epoch: 1000
next table: 1860
cur table: 1949
epoch: 1000
next table: 2703
cur table: 2967
epoch: 1000
next table: 1923
cur table: 1860
epoch: 1000
next table: 1916
cur table: 1923
epoch: 1000
next table: 1968
cur table: 1916
epoch: 1000
next table: 2766
cur table: 2703
epoch: 1000
next table: 1980
cur table: 1968
epoch: 1000
next table: 1983
cur table: 1980
epoch: 1000
next table: 1968
cur table: 1983
epoch: 1000
next table: 1952
cur table: 1968
epoch: 1000
next table: 2926
cur table: 2766
epoch: 1000
next table: 1908
cur table: 1952
epoch: 1000
next table: 1909
cur table: 1908
epoch: 1000
next table: 1955
cur table: 1909
epoch: 1000
next table: 2753
cur table: 2926
epoch: 1000
next table: 1984
cur table: 1955
epoch: 1000
next table: 1964
cur table: 1984
epoch: 1000
next table: 2019
cur table: 1964
epoch: 1000
next table: 2675
cur table: 2753
epoch: 1000
next table: 1994
cur table: 2019
epoch: 1000
next table: 1959
cur table: 1994
epoch: 1000
next table: 2026
cur table: 1959
epoch: 1000
next table: 2844
cur table: 2675
epoch: 1000
next table: 1866
cur table: 2026
epoch: 1000
next table: 1953
cur table: 1866
epoch: 1000
next table: 2621
cur table: 2844
epoch: 1000
next table: 1926
cur table: 1953
epoch: 1000
next table: 1960
cur table: 1926
epoch: 1000
next table: 1943
cur table: 1960
epoch: 1000
next table: 2681
cur table: 2621
epoch: 1000
next table: 1956
cur table: 1943
epoch: 1000
next table: 1826
cur table: 1956
epoch: 1000
next table: 1968
cur table: 1826
epoch: 1000
next table: 2743
cur table: 2681
epoch: 1000
next table: 1889
cur table: 1968
epoch: 1000
next table: 1977
cur table: 1889
epoch: 1000
next table: 1997
cur table: 1977
epoch: 1000
next table: 1911
cur table: 1997
epoch: 1000
next table: 2816
cur table: 2743
epoch: 1000
next table: 2042
cur table: 1911
epoch: 1000
next table: 1952
cur table: 2042
epoch: 1000
next table: 1911
cur table: 1952
epoch: 1000
next table: 2825
cur table: 2816
epoch: 1000
next table: 1817
cur table: 1911
epoch: 1000
next table: 1895
cur table: 1817
epoch: 1000
next table: 1943
cur table: 1895
epoch: 1000
next table: 2989
cur table: 2825
epoch: 1000
next table: 1822
cur table: 1943
epoch: 1000
next table: 1931
cur table: 1822
epoch: 1000
next table: 1991
cur table: 1931
epoch: 1000
next table: 2612
cur table: 2989
epoch: 1000
next table: 1941
cur table: 1991
epoch: 1000
next table: 1904
cur table: 1941
epoch: 1000
next table: 1993
cur table: 1904
epoch: 1000
next table: 2677
cur table: 2612
epoch: 1000
next table: 2059
cur table: 1993
epoch: 1000
next table: 1971
cur table: 2059
epoch: 1000
next table: 1891
cur table: 1971
epoch: 1000
next table: 2779
cur table: 2677
epoch: 1000
next table: 1879
cur table: 1891
epoch: 1000
next table: 2037
cur table: 1879
epoch: 1000
next table: 1961
cur table: 2037
epoch: 1000
next table: 2612
cur table: 2779
epoch: 1000
next table: 1900
cur table: 1961
epoch: 1000
next table: 2040
cur table: 1900
epoch: 1000
next table: 1984
cur table: 2040
epoch: 1000
next table: 2942
cur table: 2612
epoch: 1000
next table: 1889
cur table: 1984
epoch: 1000
next table: 1885
cur table: 1889
epoch: 1000
next table: 2048
cur table: 1885
epoch: 1000
next table: 1875
cur table: 2048
epoch: 1000
next table: 2936
cur table: 2942
epoch: 1000
next table: 1959
cur table: 1875
epoch: 1000
next table: 1868
cur table: 1959
epoch: 1000
next table: 2082
cur table: 1868
epoch: 1000
next table: 2785
cur table: 2936
epoch: 1000
next table: 2006
cur table: 2082
epoch: 1000
next table: 1902
cur table: 2006
epoch: 1000
next table: 1953
cur table: 1902
epoch: 1000
next table: 2778
cur table: 2785
epoch: 1000
next table: 1949
cur table: 1953
epoch: 1000
next table: 1848
cur table: 1949
epoch: 1000
next table: 2041
cur table: 1848
epoch: 1000
next table: 2752
cur table: 2778
epoch: 1000
next table: 1923
cur table: 2041
epoch: 1000
next table: 1969
cur table: 1923
epoch: 1000
next table: 1973
cur table: 1969
epoch: 1000
next table: 2439
cur table: 2752
epoch: 1000
next table: 1839
cur table: 1973
epoch: 1000
next table: 1993
cur table: 1839
epoch: 1000
next table: 2007
cur table: 1993
epoch: 1000
next table: 2841
cur table: 2439
epoch: 1000
next table: 1903
cur table: 2007
epoch: 1000
next table: 2036
cur table: 1903
epoch: 1000
next table: 1932
cur table: 2036
epoch: 1000
next table: 2876
cur table: 2841
epoch: 1000
next table: 1977
cur table: 1932
epoch: 1000
next table: 1830
cur table: 1977
epoch: 1000
next table: 2111
cur table: 1830
epoch: 1000
next table: 2951
cur table: 2876
epoch: 1000
next table: 1969
cur table: 2111
epoch: 1000
next table: 1986
cur table: 1969
epoch: 1000
next table: 1994
cur table: 1986
epoch: 1000
next table: 1837
cur table: 1994
epoch: 1000
next table: 2853
cur table: 2951
epoch: 1000
next table: 1932
cur table: 1837
epoch: 1000
next table: 1894
cur table: 1932
epoch: 1000
next table: 2053
cur table: 1894
epoch: 1000
next table: 2764
cur table: 2853
epoch: 1000
next table: 1973
cur table: 2053
epoch: 1000
next table: 2004
cur table: 1973
epoch: 1000
next table: 1929
cur table: 2004
epoch: 1000
next table: 2823
cur table: 2764
epoch: 1000
next table: 1967
cur table: 1929
epoch: 1000
next table: 1905
cur table: 1967
epoch: 1000
next table: 1986
cur table: 1905
epoch: 1000
next table: 2761
cur table: 2823
epoch: 1000
next table: 1844
cur table: 1986
epoch: 1000
next table: 1903
cur table: 1844
epoch: 1000
next table: 2600
cur table: 2761
epoch: 1000
next table: 2107
cur table: 1903
epoch: 1000
next table: 1909
cur table: 2107
epoch: 1000
next table: 1940
cur table: 1909
epoch: 1000
next table: 1839
cur table: 1940
epoch: 1000
next table: 2753
cur table: 2600
epoch: 1000
next table: 1986
cur table: 1839
epoch: 1000
next table: 1917
cur table: 1986
epoch: 1000
next table: 1950
cur table: 1917
epoch: 1000
next table: 2975
cur table: 2753
epoch: 1000
next table: 2014
cur table: 1950
epoch: 1000
next table: 1913
cur table: 2014
epoch: 1000
next table: 1958
cur table: 1913
epoch: 1000
next table: 2709
cur table: 2975
epoch: 1000
next table: 2063
cur table: 1958
epoch: 1000
next table: 1849
cur table: 2063
epoch: 1000
next table: 1942
cur table: 1849
epoch: 1000
next table: 2874
cur table: 2709
epoch: 1000
next table: 1909
cur table: 1942
epoch: 1000
next table: 1974
cur table: 1909
epoch: 1000
next table: 1904
cur table: 1974
epoch: 1000
next table: 2709
cur table: 2874
epoch: 1000
next table: 1809
cur table: 1904
epoch: 1000
next table: 1850
cur table: 1809
epoch: 1000
next table: 1891
cur table: 1850
epoch: 1000
next table: 1908
cur table: 1891
epoch: 1000
next table: 2821
cur table: 2709
epoch: 1000
next table: 1902
cur table: 1908
epoch: 1000
next table: 1954
cur table: 1902
epoch: 1000
next table: 1945
cur table: 1954
epoch: 1000
next table: 2733
cur table: 2821
epoch: 1000
next table: 1960
cur table: 1945
epoch: 1000
next table: 1900
cur table: 1960
epoch: 1000
next table: 2015
cur table: 1900
epoch: 1000
next table: 2734
cur table: 2733
epoch: 1000
next table: 1930
cur table: 2015
epoch: 1000
next table: 1908
cur table: 1930
epoch: 1000
next table: 1835
cur table: 1908
epoch: 1000
next table: 2642
cur table: 2734
epoch: 1000
next table: 2034
cur table: 1835
epoch: 1000
next table: 1935
cur table: 2034
epoch: 1000
next table: 2015
cur table: 1935
epoch: 1000
next table: 2863
cur table: 2642
epoch: 1000
next table: 1972
cur table: 2015
epoch: 1000
next table: 1960
cur table: 1972
epoch: 1000
next table: 1943
cur table: 1960
epoch: 1000
next table: 2749
cur table: 2863
epoch: 1000
next table: 1982
cur table: 1943
epoch: 1000
next table: 1846
cur table: 1982
epoch: 1000
next table: 1887
cur table: 1846
epoch: 1000
next table: 2850
cur table: 2749
epoch: 1000
next table: 2025
cur table: 1887
epoch: 1000
next table: 1760
cur table: 2025
epoch: 1000
next table: 1870
cur table: 1760
epoch: 1000
next table: 2687
cur table: 2850
epoch: 1000
next table: 1849
cur table: 1870
epoch: 1000
next table: 2016
cur table: 1849
epoch: 1000
next table: 1922
cur table: 2016
epoch: 1000
next table: 2796
cur table: 2687
epoch: 1000
next table: 1907
cur table: 1922
epoch: 1000
next table: 1920
cur table: 1907
epoch: 1000
next table: 1914
cur table: 1920
epoch: 1000
next table: 2864
cur table: 2796
epoch: 1000
next table: 1904
cur table: 1914
epoch: 1000
next table: 1931
cur table: 1904
epoch: 1000
next table: 1982
cur table: 1931
epoch: 1000
next table: 1910
cur table: 1982
epoch: 1000
next table: 2919
cur table: 2864
epoch: 1000
next table: 1915
cur table: 1910
epoch: 1000
next table: 2071
cur table: 1915
epoch: 1000
next table: 1998
cur table: 2071
epoch: 1000
next table: 2806
cur table: 2919
epoch: 1000
next table: 1902
cur table: 1998
epoch: 1000
next table: 1858
cur table: 1902
epoch: 1000
next table: 1956
cur table: 1858
epoch: 1000
next table: 2825
cur table: 2806
epoch: 1000
next table: 2052
cur table: 1956
epoch: 1000
next table: 1941
cur table: 2052
epoch: 1000
next table: 1829
cur table: 1941
epoch: 1000
next table: 1919
cur table: 1829
epoch: 1000
next table: 2917
cur table: 2825
epoch: 1000
next table: 1946
cur table: 1919
epoch: 1000
next table: 1780
cur table: 1946
epoch: 1000
next table: 2034
cur table: 1780
epoch: 1000
next table: 2915
cur table: 2917
epoch: 1000
next table: 1944
cur table: 2034
epoch: 1000
next table: 1849
cur table: 1944
epoch: 1000
next table: 2054
cur table: 1849
epoch: 1000
next table: 2818
cur table: 2915
epoch: 1000
next table: 1900
cur table: 2054
epoch: 1000
next table: 1967
cur table: 1900
epoch: 1000
next table: 1852
cur table: 1967
epoch: 1000
next table: 2737
cur table: 2818
epoch: 1000
next table: 1841
cur table: 1852
epoch: 1000
next table: 1924
cur table: 1841
epoch: 1000
next table: 2015
cur table: 1924
epoch: 1000
next table: 1895
cur table: 2015
epoch: 1000
next table: 2811
cur table: 2737
epoch: 1000
next table: 1984
cur table: 1895
epoch: 1000
next table: 1803
cur table: 1984
epoch: 1000
next table: 1891
cur table: 1803
epoch: 1000
next table: 2803
cur table: 2811
epoch: 1000
next table: 1988
cur table: 1891
epoch: 1000
next table: 1850
cur table: 1988
epoch: 1000
next table: 1976
cur table: 1850
epoch: 1000
next table: 2932
cur table: 2803
epoch: 1000
next table: 2012
cur table: 1976
epoch: 1000
next table: 1990
cur table: 2012
epoch: 1000
next table: 1922
cur table: 1990
epoch: 1000
next table: 1962
cur table: 1922
epoch: 1000
next table: 3125
cur table: 2932
epoch: 1000
next table: 1914
cur table: 1962
epoch: 1000
next table: 1899
cur table: 1914
epoch: 1000
next table: 2020
cur table: 1899
epoch: 1000
next table: 2768
cur table: 3125
epoch: 1000
next table: 2028
cur table: 2020
epoch: 1000
next table: 1884
cur table: 2028
epoch: 1000
next table: 1981
cur table: 1884
epoch: 1000
next table: 3021
cur table: 2768
epoch: 1000
next table: 1912
cur table: 1981
epoch: 1000
next table: 1871
cur table: 1912
epoch: 1000
next table: 1990
cur table: 1871
epoch: 1000
next table: 1945
cur table: 1990
epoch: 1000
next table: 2927
cur table: 3021
epoch: 1000
next table: 1941
cur table: 1945
epoch: 1000
next table: 1939
cur table: 1941
epoch: 1000
next table: 1912
cur table: 1939
epoch: 1000
next table: 2737
cur table: 2927
epoch: 1000
next table: 1927
cur table: 1912
epoch: 1000
next table: 2059
cur table: 1927
epoch: 1000
next table: 2021
cur table: 2059
epoch: 1000
next table: 3073
cur table: 2737
epoch: 1000
next table: 1893
cur table: 2021
epoch: 1000
next table: 1939
cur table: 1893
epoch: 1000
next table: 1957
cur table: 1939
epoch: 1000
next table: 2925
cur table: 3073
epoch: 1000
next table: 1978
cur table: 1957
epoch: 1000
next table: 1885
cur table: 1978
epoch: 1000
next table: 1913
cur table: 1885
epoch: 1000
next table: 2670
cur table: 2925
epoch: 1000
next table: 1957
cur table: 1913
epoch: 1000
next table: 1894
cur table: 1957
epoch: 1000
next table: 1848
cur table: 1894
epoch: 1000
next table: 2568
cur table: 2670
epoch: 1000
next table: 1889
cur table: 1848
epoch: 1000
next table: 1999
cur table: 1889
epoch: 1000
next table: 1982
cur table: 1999
epoch: 1000
next table: 2834
cur table: 2568
epoch: 1000
next table: 1916
cur table: 1982
epoch: 1000
next table: 1947
cur table: 1916
epoch: 1000
next table: 1844
cur table: 1947
epoch: 1000
next table: 1996
cur table: 1844
epoch: 1000
next table: 3136
cur table: 2834
epoch: 1000
next table: 1914
cur table: 1996
epoch: 1000
next table: 1971
cur table: 1914
epoch: 1000
next table: 1884
cur table: 1971
epoch: 1000
next table: 2702
cur table: 3136
epoch: 1000
next table: 2001
cur table: 1884
epoch: 1000
next table: 2008
cur table: 2001
epoch: 1000
next table: 2028
cur table: 2008
epoch: 1000
next table: 1880
cur table: 2028
epoch: 1000
next table: 3226
cur table: 2702
epoch: 1000
next table: 1777
cur table: 1880
epoch: 1000
next table: 1924
cur table: 1777
epoch: 1000
next table: 1962
cur table: 1924
epoch: 1000
next table: 2001
cur table: 1962
epoch: 1000
next table: 3238
cur table: 3226
epoch: 1000
next table: 1886
cur table: 2001
epoch: 1000
next table: 1897
cur table: 1886
epoch: 1000
next table: 1909
cur table: 1897
epoch: 1000
next table: 2884
cur table: 3238
epoch: 1000
next table: 2006
cur table: 1909
epoch: 1000
next table: 1999
cur table: 2006
epoch: 1000
next table: 1993
cur table: 1999
epoch: 1000
next table: 1981
cur table: 1993
epoch: 1000
next table: 2932
cur table: 2884
epoch: 1000
next table: 1984
cur table: 1981
epoch: 1000
next table: 1992
cur table: 1984
epoch: 1000
next table: 1991
cur table: 1992
Heartbeat CPU 0 instructions: 30000000 cycles: 11784669 heartbeat IPC: 2.54105 cumulative IPC: 2.54568 (Simulation time: 0 hr 16 min 51 sec) 
epoch: 1000
next table: 2723
cur table: 2932
epoch: 1000
next table: 1923
cur table: 1991
epoch: 1000
next table: 1936
cur table: 1923
epoch: 1000
next table: 1918
cur table: 1936
epoch: 1000
next table: 3047
cur table: 2723
epoch: 1000
next table: 1926
cur table: 1918
epoch: 1000
next table: 1982
cur table: 1926
epoch: 1000
next table: 1969
cur table: 1982
epoch: 1000
next table: 1887
cur table: 1969
epoch: 1000
next table: 3196
cur table: 3047
epoch: 1000
next table: 1967
cur table: 1887
epoch: 1000
next table: 1919
cur table: 1967
epoch: 1000
next table: 1967
cur table: 1919
epoch: 1000
next table: 2007
cur table: 1967
epoch: 1000
next table: 3015
cur table: 3196
epoch: 1000
next table: 1933
cur table: 2007
epoch: 1000
next table: 1968
cur table: 1933
epoch: 1000
next table: 1981
cur table: 1968
epoch: 1000
next table: 2777
cur table: 3015
epoch: 1000
next table: 1984
cur table: 1981
epoch: 1000
next table: 1870
cur table: 1984
epoch: 1000
next table: 1932
cur table: 1870
epoch: 1000
next table: 3092
cur table: 2777
epoch: 1000
next table: 2027
cur table: 1932
epoch: 1000
next table: 1972
cur table: 2027
epoch: 1000
next table: 1812
cur table: 1972
epoch: 1000
next table: 1887
cur table: 1812
epoch: 1000
next table: 2952
cur table: 3092
epoch: 1000
next table: 2047
cur table: 1887
epoch: 1000
next table: 1882
cur table: 2047
epoch: 1000
next table: 1904
cur table: 1882
epoch: 1000
next table: 3000
cur table: 2952
epoch: 1000
next table: 1963
cur table: 1904
epoch: 1000
next table: 1970
cur table: 1963
epoch: 1000
next table: 1986
cur table: 1970
epoch: 1000
next table: 2002
cur table: 1986
epoch: 1000
next table: 3106
cur table: 3000
epoch: 1000
next table: 1860
cur table: 2002
epoch: 1000
next table: 1939
cur table: 1860
epoch: 1000
next table: 2593
cur table: 3106
epoch: 1000
next table: 1870
cur table: 1939
epoch: 1000
next table: 1889
cur table: 1870
epoch: 1000
next table: 1866
cur table: 1889
epoch: 1000
next table: 2476
cur table: 2593
epoch: 1000
next table: 1897
cur table: 1866
epoch: 1000
next table: 1889
cur table: 1897
epoch: 1000
next table: 2860
cur table: 2476
epoch: 1000
next table: 1925
cur table: 1889
epoch: 1000
next table: 2147
cur table: 1925
epoch: 1000
next table: 2029
cur table: 2147
epoch: 1000
next table: 1933
cur table: 2029
epoch: 1000
next table: 3037
cur table: 2860
epoch: 1000
next table: 1948
cur table: 1933
epoch: 1000
next table: 1869
cur table: 1948
epoch: 1000
next table: 2593
cur table: 3037
epoch: 1000
next table: 1891
cur table: 1869
epoch: 1000
next table: 1913
cur table: 1891
epoch: 1000
next table: 1918
cur table: 1913
epoch: 1000
next table: 1891
cur table: 1918
epoch: 1000
next table: 3062
cur table: 2593
epoch: 1000
next table: 1818
cur table: 1891
epoch: 1000
next table: 1924
cur table: 1818
epoch: 1000
next table: 1920
cur table: 1924
epoch: 1000
next table: 2911
cur table: 3062
epoch: 1000
next table: 1882
cur table: 1920
epoch: 1000
next table: 2023
cur table: 1882
epoch: 1000
next table: 2002
cur table: 2023
epoch: 1000
next table: 1945
cur table: 2002
epoch: 1000
next table: 2874
cur table: 2911
epoch: 1000
next table: 1902
cur table: 1945
epoch: 1000
next table: 1997
cur table: 1902
epoch: 1000
next table: 1911
cur table: 1997
epoch: 1000
next table: 2930
cur table: 2874
epoch: 1000
next table: 1826
cur table: 1911
epoch: 1000
next table: 1919
cur table: 1826
epoch: 1000
next table: 1970
cur table: 1919
epoch: 1000
next table: 1907
cur table: 1970
epoch: 1000
next table: 3376
cur table: 2930
epoch: 1000
next table: 1911
cur table: 1907
epoch: 1000
next table: 1869
cur table: 1911
epoch: 1000
next table: 1877
cur table: 1869
epoch: 1000
next table: 2780
cur table: 3376
epoch: 1000
next table: 1958
cur table: 1877
epoch: 1000
next table: 1925
cur table: 1958
epoch: 1000
next table: 1964
cur table: 1925
epoch: 1000
next table: 1838
cur table: 1964
epoch: 1000
next table: 2920
cur table: 2780
epoch: 1000
next table: 1945
cur table: 1838
epoch: 1000
next table: 1906
cur table: 1945
epoch: 1000
next table: 1979
cur table: 1906
epoch: 1000
next table: 3108
cur table: 2920
epoch: 1000
next table: 1986
cur table: 1979
epoch: 1000
next table: 1845
cur table: 1986
epoch: 1000
next table: 1913
cur table: 1845
epoch: 1000
next table: 1825
cur table: 1913
epoch: 1000
next table: 3225
cur table: 3108
epoch: 1000
next table: 1938
cur table: 1825
epoch: 1000
next table: 1959
cur table: 1938
epoch: 1000
next table: 1913
cur table: 1959
epoch: 1000
next table: 1962
cur table: 1913
epoch: 1000
next table: 2889
cur table: 3225
epoch: 1000
next table: 2033
cur table: 1962
epoch: 1000
next table: 2027
cur table: 2033
epoch: 1000
next table: 1927
cur table: 2027
epoch: 1000
next table: 3230
cur table: 2889
epoch: 1000
next table: 1970
cur table: 1927
epoch: 1000
next table: 1869
cur table: 1970
epoch: 1000
next table: 2113
cur table: 1869
epoch: 1000
next table: 1976
cur table: 2113
epoch: 1000
next table: 2922
cur table: 3230
epoch: 1000
next table: 1981
cur table: 1976
epoch: 1000
next table: 1986
cur table: 1981
epoch: 1000
next table: 1944
cur table: 1986
epoch: 1000
next table: 3127
cur table: 2922
epoch: 1000
next table: 2000
cur table: 1944
epoch: 1000
next table: 1882
cur table: 2000
epoch: 1000
next table: 1873
cur table: 1882
epoch: 1000
next table: 2609
cur table: 3127
epoch: 1000
next table: 1976
cur table: 1873
epoch: 1000
next table: 1919
cur table: 1976
epoch: 1000
next table: 1988
cur table: 1919
epoch: 1000
next table: 1978
cur table: 1988
epoch: 1000
next table: 3392
cur table: 2609
epoch: 1000
next table: 2002
cur table: 1978
epoch: 1000
next table: 1926
cur table: 2002
epoch: 1000
next table: 1888
cur table: 1926
epoch: 1000
next table: 1911
cur table: 1888
epoch: 1000
next table: 2912
cur table: 3392
epoch: 1000
next table: 2053
cur table: 1911
epoch: 1000
next table: 2007
cur table: 2053
epoch: 1000
next table: 1940
cur table: 2007
epoch: 1000
next table: 3065
cur table: 2912
epoch: 1000
next table: 1973
cur table: 1940
epoch: 1000
next table: 1886
cur table: 1973
epoch: 1000
next table: 1851
cur table: 1886
epoch: 1000
next table: 2796
cur table: 3065
epoch: 1000
next table: 1976
cur table: 1851
epoch: 1000
next table: 2022
cur table: 1976
epoch: 1000
next table: 1982
cur table: 2022
epoch: 1000
next table: 1985
cur table: 1982
epoch: 1000
next table: 3238
cur table: 2796
epoch: 1000
next table: 1928
cur table: 1985
epoch: 1000
next table: 2035
cur table: 1928
epoch: 1000
next table: 2066
cur table: 2035
epoch: 1000
next table: 2011
cur table: 2066
epoch: 1000
next table: 3164
cur table: 3238
epoch: 1000
next table: 1864
cur table: 2011
epoch: 1000
next table: 1984
cur table: 1864
epoch: 1000
next table: 1746
cur table: 1984
epoch: 1000
next table: 2868
cur table: 3164
epoch: 1000
next table: 1983
cur table: 1746
epoch: 1000
next table: 1966
cur table: 1983
epoch: 1000
next table: 1953
cur table: 1966
epoch: 1000
next table: 1849
cur table: 1953
epoch: 1000
next table: 3187
cur table: 2868
epoch: 1000
next table: 1975
cur table: 1849
epoch: 1000
next table: 1919
cur table: 1975
epoch: 1000
next table: 1877
cur table: 1919
epoch: 1000
next table: 1815
cur table: 1877
epoch: 1000
next table: 2930
cur table: 3187
epoch: 1000
next table: 1877
cur table: 1815
epoch: 1000
next table: 1966
cur table: 1877
epoch: 1000
next table: 1944
cur table: 1966
epoch: 1000
next table: 2838
cur table: 2930
epoch: 1000
next table: 1856
cur table: 1944
epoch: 1000
next table: 2052
cur table: 1856
epoch: 1000
next table: 1919
cur table: 2052
epoch: 1000
next table: 2812
cur table: 2838
epoch: 1000
next table: 1896
cur table: 1919
epoch: 1000
next table: 1775
cur table: 1896
epoch: 1000
next table: 1870
cur table: 1775
epoch: 1000
next table: 1895
cur table: 1870
epoch: 1000
next table: 3032
cur table: 2812
epoch: 1000
next table: 2094
cur table: 1895
epoch: 1000
next table: 1887
cur table: 2094
epoch: 1000
next table: 1995
cur table: 1887
epoch: 1000
next table: 2957
cur table: 3032
epoch: 1000
next table: 1942
cur table: 1995
epoch: 1000
next table: 1997
cur table: 1942
epoch: 1000
next table: 1952
cur table: 1997
epoch: 1000
next table: 1893
cur table: 1952
epoch: 1000
next table: 2889
cur table: 2957
epoch: 1000
next table: 1940
cur table: 1893
epoch: 1000
next table: 1979
cur table: 1940
epoch: 1000
next table: 2047
cur table: 1979
epoch: 1000
next table: 2863
cur table: 2889
epoch: 1000
next table: 1849
cur table: 2047
epoch: 1000
next table: 1888
cur table: 1849
epoch: 1000
next table: 1896
cur table: 1888
epoch: 1000
next table: 2699
cur table: 2863
epoch: 1000
next table: 1826
cur table: 1896
epoch: 1000
next table: 1845
cur table: 1826
epoch: 1000
next table: 1911
cur table: 1845
epoch: 1000
next table: 2884
cur table: 2699
epoch: 1000
next table: 1843
cur table: 1911
epoch: 1000
next table: 2136
cur table: 1843
epoch: 1000
next table: 1993
cur table: 2136
epoch: 1000
next table: 1778
cur table: 1993
epoch: 1000
next table: 3108
cur table: 2884
epoch: 1000
next table: 1935
cur table: 1778
epoch: 1000
next table: 1814
cur table: 1935
epoch: 1000
next table: 1865
cur table: 1814
epoch: 1000
next table: 1780
cur table: 1865
epoch: 1000
next table: 3155
cur table: 3108
epoch: 1000
next table: 1926
cur table: 1780
epoch: 1000
next table: 1900
cur table: 1926
epoch: 1000
next table: 1945
cur table: 1900
epoch: 1000
next table: 1910
cur table: 1945
epoch: 1000
next table: 3095
cur table: 3155
epoch: 1000
next table: 1891
cur table: 1910
epoch: 1000
next table: 1879
cur table: 1891
epoch: 1000
next table: 2002
cur table: 1879
epoch: 1000
next table: 1796
cur table: 2002
epoch: 1000
next table: 3192
cur table: 3095
epoch: 1000
next table: 1956
cur table: 1796
epoch: 1000
next table: 1993
cur table: 1956
epoch: 1000
next table: 1889
cur table: 1993
epoch: 1000
next table: 3255
cur table: 3192
epoch: 1000
next table: 1949
cur table: 1889
epoch: 1000
next table: 1900
cur table: 1949
epoch: 1000
next table: 1749
cur table: 1900
epoch: 1000
next table: 1908
cur table: 1749
epoch: 1000
next table: 2958
cur table: 3255
epoch: 1000
next table: 1863
cur table: 1908
epoch: 1000
next table: 1963
cur table: 1863
epoch: 1000
next table: 1899
cur table: 1963
epoch: 1000
next table: 1904
cur table: 1899
epoch: 1000
next table: 3079
cur table: 2958
epoch: 1000
next table: 1949
cur table: 1904
epoch: 1000
next table: 1977
cur table: 1949
epoch: 1000
next table: 1945
cur table: 1977
epoch: 1000
next table: 3010
cur table: 3079
epoch: 1000
next table: 1988
cur table: 1945
epoch: 1000
next table: 1992
cur table: 1988
epoch: 1000
next table: 1939
cur table: 1992
epoch: 1000
next table: 2933
cur table: 3010
epoch: 1000
next table: 1952
cur table: 1939
epoch: 1000
next table: 1950
cur table: 1952
epoch: 1000
next table: 1870
cur table: 1950
epoch: 1000
next table: 1979
cur table: 1870
epoch: 1000
next table: 3088
cur table: 2933
epoch: 1000
next table: 1884
cur table: 1979
epoch: 1000
next table: 1882
cur table: 1884
epoch: 1000
next table: 2043
cur table: 1882
epoch: 1000
next table: 2906
cur table: 3088
epoch: 1000
next table: 2046
cur table: 2043
epoch: 1000
next table: 1882
cur table: 2046
epoch: 1000
next table: 1992
cur table: 1882
epoch: 1000
next table: 1999
cur table: 1992
epoch: 1000
next table: 3018
cur table: 2906
epoch: 1000
next table: 1856
cur table: 1999
epoch: 1000
next table: 1915
cur table: 1856
epoch: 1000
next table: 2049
cur table: 1915
epoch: 1000
next table: 3076
cur table: 3018
epoch: 1000
next table: 1957
cur table: 2049
epoch: 1000
next table: 1968
cur table: 1957
epoch: 1000
next table: 1952
cur table: 1968
epoch: 1000
next table: 1968
cur table: 1952
epoch: 1000
next table: 3322
cur table: 3076
epoch: 1000
next table: 1930
cur table: 1968
epoch: 1000
next table: 1941
cur table: 1930
epoch: 1000
next table: 1843
cur table: 1941
epoch: 1000
next table: 1892
cur table: 1843
epoch: 1000
next table: 3027
cur table: 3322
epoch: 1000
next table: 1867
cur table: 1892
epoch: 1000
next table: 1908
cur table: 1867
epoch: 1000
next table: 1830
cur table: 1908
epoch: 1000
next table: 1983
cur table: 1830
epoch: 1000
next table: 3069
cur table: 3027
epoch: 1000
next table: 1963
cur table: 1983
epoch: 1000
next table: 1971
cur table: 1963
epoch: 1000
next table: 1845
cur table: 1971
epoch: 1000
next table: 3028
cur table: 3069
epoch: 1000
next table: 2064
cur table: 1845
epoch: 1000
next table: 2001
cur table: 2064
epoch: 1000
next table: 1865
cur table: 2001
epoch: 1000
next table: 1954
cur table: 1865
epoch: 1000
next table: 3331
cur table: 3028
epoch: 1000
next table: 1911
cur table: 1954
epoch: 1000
next table: 1912
cur table: 1911
epoch: 1000
next table: 1997
cur table: 1912
epoch: 1000
next table: 1843
cur table: 1997
epoch: 1000
next table: 2801
cur table: 3331
epoch: 1000
next table: 1894
cur table: 1843
epoch: 1000
next table: 1992
cur table: 1894
epoch: 1000
next table: 1998
cur table: 1992
epoch: 1000
next table: 2968
cur table: 2801
epoch: 1000
next table: 1912
cur table: 1998
epoch: 1000
next table: 1948
cur table: 1912
epoch: 1000
next table: 1904
cur table: 1948
epoch: 1000
next table: 2930
cur table: 2968
epoch: 1000
next table: 1818
cur table: 1904
epoch: 1000
next table: 2004
cur table: 1818
epoch: 1000
next table: 1897
cur table: 2004
epoch: 1000
next table: 1881
cur table: 1897
epoch: 1000
next table: 3215
cur table: 2930
epoch: 1000
next table: 2133
cur table: 1881
epoch: 1000
next table: 1918
cur table: 2133
epoch: 1000
next table: 2057
cur table: 1918
epoch: 1000
next table: 1951
cur table: 2057
epoch: 1000
next table: 2963
cur table: 3215
epoch: 1000
next table: 1933
cur table: 1951
epoch: 1000
next table: 2086
cur table: 1933
epoch: 1000
next table: 1969
cur table: 2086
epoch: 1000
next table: 3009
cur table: 2963
epoch: 1000
next table: 1965
cur table: 1969
epoch: 1000
next table: 1996
cur table: 1965
epoch: 1000
next table: 1920
cur table: 1996
epoch: 1000
next table: 1863
cur table: 1920
epoch: 1000
next table: 3257
cur table: 3009
epoch: 1000
next table: 1980
cur table: 1863
epoch: 1000
next table: 1983
cur table: 1980
epoch: 1000
next table: 1950
cur table: 1983
epoch: 1000
next table: 2871
cur table: 3257
epoch: 1000
next table: 2009
cur table: 1950
epoch: 1000
next table: 1900
cur table: 2009
epoch: 1000
next table: 1987
cur table: 1900
epoch: 1000
next table: 2072
cur table: 1987
epoch: 1000
next table: 3257
cur table: 2871
epoch: 1000
next table: 1963
cur table: 2072
epoch: 1000
next table: 1917
cur table: 1963
epoch: 1000
next table: 1896
cur table: 1917
epoch: 1000
next table: 2771
cur table: 3257
epoch: 1000
next table: 1913
cur table: 1896
epoch: 1000
next table: 2002
cur table: 1913
epoch: 1000
next table: 1905
cur table: 2002
epoch: 1000
next table: 2782
cur table: 2771
epoch: 1000
next table: 1828
cur table: 1905
epoch: 1000
next table: 1869
cur table: 1828
epoch: 1000
next table: 1889
cur table: 1869
epoch: 1000
next table: 2099
cur table: 1889
epoch: 1000
next table: 3029
cur table: 2782
epoch: 1000
next table: 1916
cur table: 2099
epoch: 1000
next table: 1876
cur table: 1916
epoch: 1000
next table: 2699
cur table: 3029
epoch: 1000
next table: 1893
cur table: 1876
epoch: 1000
next table: 1890
cur table: 1893
epoch: 1000
next table: 2136
cur table: 1890
epoch: 1000
next table: 2069
cur table: 2136
epoch: 1000
next table: 2975
cur table: 2699
epoch: 1000
next table: 1992
cur table: 2069
epoch: 1000
next table: 1854
cur table: 1992
epoch: 1000
next table: 1966
cur table: 1854
epoch: 1000
next table: 3218
cur table: 2975
epoch: 1000
next table: 1844
cur table: 1966
epoch: 1000
next table: 2070
cur table: 1844
epoch: 1000
next table: 1863
cur table: 2070
epoch: 1000
next table: 1907
cur table: 1863
epoch: 1000
next table: 3323
cur table: 3218
epoch: 1000
next table: 1998
cur table: 1907
epoch: 1000
next table: 1824
cur table: 1998
epoch: 1000
next table: 2108
cur table: 1824
epoch: 1000
next table: 1878
cur table: 2108
Heartbeat CPU 0 instructions: 40000001 cycles: 15708500 heartbeat IPC: 2.54853 cumulative IPC: 2.54639 (Simulation time: 0 hr 21 min 38 sec) 
epoch: 1000
next table: 1804
cur table: 1878
epoch: 1000
next table: 3248
cur table: 3323
epoch: 1000
next table: 1930
cur table: 1804
epoch: 1000
next table: 1970
cur table: 1930
epoch: 1000
next table: 1851
cur table: 1970
epoch: 1000
next table: 1847
cur table: 1851
epoch: 1000
next table: 3396
cur table: 3248
epoch: 1000
next table: 1974
cur table: 1847
epoch: 1000
next table: 1926
cur table: 1974
epoch: 1000
next table: 1870
cur table: 1926
epoch: 1000
next table: 1865
cur table: 1870
epoch: 1000
next table: 3164
cur table: 3396
epoch: 1000
next table: 1900
cur table: 1865
epoch: 1000
next table: 2009
cur table: 1900
epoch: 1000
next table: 1840
cur table: 2009
epoch: 1000
next table: 1864
cur table: 1840
epoch: 1000
next table: 3220
cur table: 3164
epoch: 1000
next table: 2080
cur table: 1864
epoch: 1000
next table: 1845
cur table: 2080
epoch: 1000
next table: 1968
cur table: 1845
epoch: 1000
next table: 3182
cur table: 3220
epoch: 1000
next table: 1932
cur table: 1968
epoch: 1000
next table: 1932
cur table: 1932
epoch: 1000
next table: 2022
cur table: 1932
epoch: 1000
next table: 1905
cur table: 2022
epoch: 1000
next table: 3021
cur table: 3182
epoch: 1000
next table: 1933
cur table: 1905
epoch: 1000
next table: 2070
cur table: 1933
epoch: 1000
next table: 1911
cur table: 2070
epoch: 1000
next table: 1908
cur table: 1911
epoch: 1000
next table: 3511
cur table: 3021
epoch: 1000
next table: 2037
cur table: 1908
epoch: 1000
next table: 1751
cur table: 2037
epoch: 1000
next table: 1962
cur table: 1751
epoch: 1000
next table: 1882
cur table: 1962
epoch: 1000
next table: 3225
cur table: 3511
epoch: 1000
next table: 1913
cur table: 1882
epoch: 1000
next table: 1931
cur table: 1913
epoch: 1000
next table: 1994
cur table: 1931
epoch: 1000
next table: 2007
cur table: 1994
epoch: 1000
next table: 3142
cur table: 3225
epoch: 1000
next table: 2070
cur table: 2007
epoch: 1000
next table: 1915
cur table: 2070
epoch: 1000
next table: 1903
cur table: 1915
epoch: 1000
next table: 2973
cur table: 3142
epoch: 1000
next table: 1846
cur table: 1903
epoch: 1000
next table: 1886
cur table: 1846
epoch: 1000
next table: 2029
cur table: 1886
epoch: 1000
next table: 1912
cur table: 2029
epoch: 1000
next table: 2962
cur table: 2973
epoch: 1000
next table: 1928
cur table: 1912
epoch: 1000
next table: 1992
cur table: 1928
epoch: 1000
next table: 2046
cur table: 1992
epoch: 1000
next table: 1953
cur table: 2046
epoch: 1000
next table: 3243
cur table: 2962
epoch: 1000
next table: 1921
cur table: 1953
epoch: 1000
next table: 1999
cur table: 1921
epoch: 1000
next table: 1962
cur table: 1999
epoch: 1000
next table: 3133
cur table: 3243
epoch: 1000
next table: 1998
cur table: 1962
epoch: 1000
next table: 1928
cur table: 1998
epoch: 1000
next table: 1880
cur table: 1928
epoch: 1000
next table: 1878
cur table: 1880
epoch: 1000
next table: 2860
cur table: 3133
epoch: 1000
next table: 1970
cur table: 1878
epoch: 1000
next table: 1890
cur table: 1970
epoch: 1000
next table: 2077
cur table: 1890
epoch: 1000
next table: 3037
cur table: 2860
epoch: 1000
next table: 2014
cur table: 2077
epoch: 1000
next table: 1935
cur table: 2014
epoch: 1000
next table: 1992
cur table: 1935
epoch: 1000
next table: 1916
cur table: 1992
epoch: 1000
next table: 1933
cur table: 1916
epoch: 1000
next table: 3595
cur table: 3037
epoch: 1000
next table: 1834
cur table: 1933
epoch: 1000
next table: 1843
cur table: 1834
epoch: 1000
next table: 1943
cur table: 1843
epoch: 1000
next table: 1888
cur table: 1943
epoch: 1000
next table: 3140
cur table: 3595
epoch: 1000
next table: 1920
cur table: 1888
epoch: 1000
next table: 2075
cur table: 1920
epoch: 1000
next table: 2004
cur table: 2075
epoch: 1000
next table: 3192
cur table: 3140
epoch: 1000
next table: 1964
cur table: 2004
epoch: 1000
next table: 1924
cur table: 1964
epoch: 1000
next table: 1935
cur table: 1924
epoch: 1000
next table: 1842
cur table: 1935
epoch: 1000
next table: 1977
cur table: 1842
epoch: 1000
next table: 3517
cur table: 3192
epoch: 1000
next table: 2033
cur table: 1977
epoch: 1000
next table: 2031
cur table: 2033
epoch: 1000
next table: 1793
cur table: 2031
epoch: 1000
next table: 2586
cur table: 3517
epoch: 1000
next table: 1857
cur table: 1793
epoch: 1000
next table: 1794
cur table: 1857
epoch: 1000
next table: 1813
cur table: 1794
epoch: 1000
next table: 2929
cur table: 2586
epoch: 1000
next table: 1942
cur table: 1813
epoch: 1000
next table: 1778
cur table: 1942
epoch: 1000
next table: 1902
cur table: 1778
epoch: 1000
next table: 2015
cur table: 1902
epoch: 1000
next table: 3399
cur table: 2929
epoch: 1000
next table: 1987
cur table: 2015
epoch: 1000
next table: 1901
cur table: 1987
epoch: 1000
next table: 1958
cur table: 1901
epoch: 1000
next table: 1843
cur table: 1958
epoch: 1000
next table: 1984
cur table: 1843
epoch: 1000
next table: 3321
cur table: 3399
epoch: 1000
next table: 1945
cur table: 1984
epoch: 1000
next table: 1953
cur table: 1945
epoch: 1000
next table: 1835
cur table: 1953
epoch: 1000
next table: 2759
cur table: 3321
epoch: 1000
next table: 1948
cur table: 1835
epoch: 1000
next table: 2000
cur table: 1948
epoch: 1000
next table: 1962
cur table: 2000
epoch: 1000
next table: 3115
cur table: 2759
epoch: 1000
next table: 1918
cur table: 1962
epoch: 1000
next table: 1993
cur table: 1918
epoch: 1000
next table: 1976
cur table: 1993
epoch: 1000
next table: 1927
cur table: 1976
epoch: 1000
next table: 3097
cur table: 3115
epoch: 1000
next table: 1978
cur table: 1927
epoch: 1000
next table: 1956
cur table: 1978
epoch: 1000
next table: 1946
cur table: 1956
epoch: 1000
next table: 3060
cur table: 3097
epoch: 1000
next table: 1999
cur table: 1946
epoch: 1000
next table: 1979
cur table: 1999
epoch: 1000
next table: 2015
cur table: 1979
epoch: 1000
next table: 1904
cur table: 2015
epoch: 1000
next table: 3161
cur table: 3060
epoch: 1000
next table: 1901
cur table: 1904
epoch: 1000
next table: 1982
cur table: 1901
epoch: 1000
next table: 1776
cur table: 1982
epoch: 1000
next table: 1902
cur table: 1776
epoch: 1000
next table: 3190
cur table: 3161
epoch: 1000
next table: 2089
cur table: 1902
epoch: 1000
next table: 1955
cur table: 2089
epoch: 1000
next table: 1950
cur table: 1955
epoch: 1000
next table: 3024
cur table: 3190
epoch: 1000
next table: 2004
cur table: 1950
epoch: 1000
next table: 2027
cur table: 2004
epoch: 1000
next table: 1887
cur table: 2027
epoch: 1000
next table: 1884
cur table: 1887
epoch: 1000
next table: 3225
cur table: 3024
epoch: 1000
next table: 2000
cur table: 1884
epoch: 1000
next table: 1946
cur table: 2000
epoch: 1000
next table: 1930
cur table: 1946
epoch: 1000
next table: 1929
cur table: 1930
epoch: 1000
next table: 3167
cur table: 3225
epoch: 1000
next table: 2012
cur table: 1929
epoch: 1000
next table: 1946
cur table: 2012
epoch: 1000
next table: 1985
cur table: 1946
epoch: 1000
next table: 3036
cur table: 3167
epoch: 1000
next table: 2008
cur table: 1985
epoch: 1000
next table: 1963
cur table: 2008
epoch: 1000
next table: 1899
cur table: 1963
epoch: 1000
next table: 2078
cur table: 1899
epoch: 1000
next table: 3058
cur table: 3036
epoch: 1000
next table: 1916
cur table: 2078
epoch: 1000
next table: 1957
cur table: 1916
epoch: 1000
next table: 2021
cur table: 1957
epoch: 1000
next table: 3067
cur table: 3058
epoch: 1000
next table: 1935
cur table: 2021
epoch: 1000
next table: 1859
cur table: 1935
epoch: 1000
next table: 2129
cur table: 1859
epoch: 1000
next table: 1897
cur table: 2129
epoch: 1000
next table: 3292
cur table: 3067
epoch: 1000
next table: 1926
cur table: 1897
epoch: 1000
next table: 1918
cur table: 1926
epoch: 1000
next table: 1967
cur table: 1918
epoch: 1000
next table: 2656
cur table: 3292
epoch: 1000
next table: 1855
cur table: 1967
epoch: 1000
next table: 1851
cur table: 1855
epoch: 1000
next table: 1918
cur table: 1851
epoch: 1000
next table: 1906
cur table: 1918
epoch: 1000
next table: 3231
cur table: 2656
epoch: 1000
next table: 2008
cur table: 1906
epoch: 1000
next table: 2058
cur table: 2008
epoch: 1000
next table: 1924
cur table: 2058
epoch: 1000
next table: 1932
cur table: 1924
epoch: 1000
next table: 3207
cur table: 3231
epoch: 1000
next table: 1932
cur table: 1932
epoch: 1000
next table: 1864
cur table: 1932
epoch: 1000
next table: 1960
cur table: 1864
epoch: 1000
next table: 1938
cur table: 1960
epoch: 1000
next table: 3067
cur table: 3207
epoch: 1000
next table: 1874
cur table: 1938
epoch: 1000
next table: 1900
cur table: 1874
epoch: 1000
next table: 2033
cur table: 1900
epoch: 1000
next table: 3085
cur table: 3067
epoch: 1000
next table: 2028
cur table: 2033
epoch: 1000
next table: 1961
cur table: 2028
epoch: 1000
next table: 1867
cur table: 1961
epoch: 1000
next table: 2138
cur table: 1867
epoch: 1000
next table: 3292
cur table: 3085
epoch: 1000
next table: 1844
cur table: 2138
epoch: 1000
next table: 1943
cur table: 1844
epoch: 1000
next table: 1855
cur table: 1943
epoch: 1000
next table: 1852
cur table: 1855
epoch: 1000
next table: 3327
cur table: 3292
epoch: 1000
next table: 1850
cur table: 1852
epoch: 1000
next table: 1937
cur table: 1850
epoch: 1000
next table: 1871
cur table: 1937
epoch: 1000
next table: 1875
cur table: 1871
epoch: 1000
next table: 2983
cur table: 3327
epoch: 1000
next table: 2029
cur table: 1875
epoch: 1000
next table: 1939
cur table: 2029
epoch: 1000
next table: 1889
cur table: 1939
epoch: 1000
next table: 2870
cur table: 2983
epoch: 1000
next table: 2009
cur table: 1889
epoch: 1000
next table: 1906
cur table: 2009
epoch: 1000
next table: 1949
cur table: 1906
epoch: 1000
next table: 2032
cur table: 1949
epoch: 1000
next table: 3249
cur table: 2870
epoch: 1000
next table: 1772
cur table: 2032
epoch: 1000
next table: 1895
cur table: 1772
epoch: 1000
next table: 1916
cur table: 1895
epoch: 1000
next table: 1858
cur table: 1916
epoch: 1000
next table: 3103
cur table: 3249
epoch: 1000
next table: 1945
cur table: 1858
epoch: 1000
next table: 1878
cur table: 1945
epoch: 1000
next table: 1760
cur table: 1878
epoch: 1000
next table: 2817
cur table: 3103
epoch: 1000
next table: 2064
cur table: 1760
epoch: 1000
next table: 1948
cur table: 2064
epoch: 1000
next table: 1862
cur table: 1948
epoch: 1000
next table: 1924
cur table: 1862
epoch: 1000
next table: 2964
cur table: 2817
epoch: 1000
next table: 1925
cur table: 1924
epoch: 1000
next table: 1943
cur table: 1925
epoch: 1000
next table: 1981
cur table: 1943
epoch: 1000
next table: 1955
cur table: 1981
epoch: 1000
next table: 3221
cur table: 2964
epoch: 1000
next table: 1861
cur table: 1955
epoch: 1000
next table: 1852
cur table: 1861
epoch: 1000
next table: 2039
cur table: 1852
epoch: 1000
next table: 1833
cur table: 2039
epoch: 1000
next table: 3281
cur table: 3221
epoch: 1000
next table: 1881
cur table: 1833
epoch: 1000
next table: 1911
cur table: 1881
epoch: 1000
next table: 1925
cur table: 1911
epoch: 1000
next table: 1950
cur table: 1925
epoch: 1000
next table: 3390
cur table: 3281
epoch: 1000
next table: 1991
cur table: 1950
epoch: 1000
next table: 1876
cur table: 1991
epoch: 1000
next table: 1999
cur table: 1876
epoch: 1000
next table: 1984
cur table: 1999
epoch: 1000
next table: 3082
cur table: 3390
epoch: 1000
next table: 1842
cur table: 1984
epoch: 1000
next table: 1858
cur table: 1842
epoch: 1000
next table: 1742
cur table: 1858
epoch: 1000
next table: 1929
cur table: 1742
epoch: 1000
next table: 3310
cur table: 3082
epoch: 1000
next table: 1803
cur table: 1929
epoch: 1000
next table: 1905
cur table: 1803
epoch: 1000
next table: 1903
cur table: 1905
epoch: 1000
next table: 1959
cur table: 1903
epoch: 1000
next table: 3226
cur table: 3310
epoch: 1000
next table: 1971
cur table: 1959
epoch: 1000
next table: 1911
cur table: 1971
epoch: 1000
next table: 1911
cur table: 1911
epoch: 1000
next table: 2818
cur table: 3226
epoch: 1000
next table: 1938
cur table: 1911
epoch: 1000
next table: 1880
cur table: 1938
epoch: 1000
next table: 1972
cur table: 1880
epoch: 1000
next table: 1927
cur table: 1972
epoch: 1000
next table: 3348
cur table: 2818
epoch: 1000
next table: 1960
cur table: 1927
epoch: 1000
next table: 1966
cur table: 1960
epoch: 1000
next table: 1890
cur table: 1966
epoch: 1000
next table: 2072
cur table: 1890
epoch: 1000
next table: 3392
cur table: 3348
epoch: 1000
next table: 1938
cur table: 2072
epoch: 1000
next table: 1933
cur table: 1938
epoch: 1000
next table: 1997
cur table: 1933
epoch: 1000
next table: 1969
cur table: 1997
epoch: 1000
next table: 3188
cur table: 3392
epoch: 1000
next table: 1996
cur table: 1969
epoch: 1000
next table: 1960
cur table: 1996
epoch: 1000
next table: 1944
cur table: 1960
epoch: 1000
next table: 3180
cur table: 3188
epoch: 1000
next table: 1910
cur table: 1944
epoch: 1000
next table: 1881
cur table: 1910
epoch: 1000
next table: 1939
cur table: 1881
epoch: 1000
next table: 1954
cur table: 1939
epoch: 1000
next table: 2862
cur table: 3180
epoch: 1000
next table: 1952
cur table: 1954
epoch: 1000
next table: 1951
cur table: 1952
epoch: 1000
next table: 2079
cur table: 1951
epoch: 1000
next table: 1952
cur table: 2079
epoch: 1000
next table: 3269
cur table: 2862
epoch: 1000
[...]
cur table: 1876
epoch: 1000
next table: 2008
cur table: 1897
epoch: 1000
next table: 1946
cur table: 2008
epoch: 1000
next table: 1952
cur table: 1946
epoch: 1000
next table: 1844
cur table: 1952
epoch: 1000
next table: 4207
cur table: 4727
epoch: 1000
next table: 1930
cur table: 1844
epoch: 1000
next table: 2001
cur table: 1930
epoch: 1000
next table: 1904
cur table: 2001
epoch: 1000
next table: 1917
cur table: 1904
epoch: 1000
next table: 1971
cur table: 1917
epoch: 1000
next table: 3817
cur table: 4207
epoch: 1000
next table: 1949
cur table: 1971
epoch: 1000
next table: 1925
cur table: 1949
epoch: 1000
next table: 2028
cur table: 1925
epoch: 1000
next table: 1883
cur table: 2028
epoch: 1000
next table: 1978
cur table: 1883
epoch: 1000
next table: 4264
cur table: 3817
epoch: 1000
next table: 2029
cur table: 1978
epoch: 1000
next table: 1991
cur table: 2029
epoch: 1000
next table: 1900
cur table: 1991
epoch: 1000
next table: 1904
cur table: 1900
epoch: 1000
next table: 2010
cur table: 1904
epoch: 1000
next table: 1925
cur table: 2010
epoch: 1000
next table: 3975
cur table: 4264
epoch: 1000
next table: 1822
cur table: 1925
epoch: 1000
next table: 1912
cur table: 1822
epoch: 1000
next table: 2032
cur table: 1912
epoch: 1000
next table: 1955
cur table: 2032
epoch: 1000
next table: 1932
cur table: 1955
epoch: 1000
next table: 4304
cur table: 3975
epoch: 1000
next table: 1790
cur table: 1932
epoch: 1000
next table: 1791
cur table: 1790
epoch: 1000
next table: 1967
cur table: 1791
epoch: 1000
next table: 2012
cur table: 1967
epoch: 1000
next table: 3316
cur table: 4304
epoch: 1000
next table: 1898
cur table: 2012
epoch: 1000
next table: 1984
cur table: 1898
Heartbeat CPU 0 instructions: 100000000 cycles: 255517667 heartbeat IPC: 0.213473 cumulative IPC: 0.21198 (Simulation time: 0 hr 57 min 5 sec) 
Finished CPU 0 instructions: 50000000 cycles: 235870906 cumulative IPC: 0.21198 (Simulation time: 0 hr 57 min 5 sec) 

ChampSim completed all CPUs

Region of Interest Statistics

CPU 0 cumulative IPC: 0.21198 instructions: 50000000 cycles: 235870906
ITLB TOTAL     ACCESS:    8408780  HIT:    8329927  MISS:      78853  HIT %:    99.0623  MISS %:   0.937746   MPKI: 1.57706
ITLB LOAD TRANSLATION ACCESS:    8408780  HIT:    8329927  MISS:      78853  HIT %:    99.0623  MISS %:   0.937746   MPKI: 1.57706
ITLB PREFETCH  REQUESTED:          0  ISSUED:          0  USEFUL:          0  USELESS:          0
ITLB USEFUL LOAD PREFETCHES:          0 PREFETCH ISSUED TO LOWER LEVEL:          0  ACCURACY: -nan
ITLB TIMELY PREFETCHES:          0 LATE PREFETCHES: 0 DROPPED PREFETCHES: 0
ITLB PREFETCHES SAME FILL-ORIGIN LEVEL: 0 DIFFERENT FILL-ORIGIN LEVEL: 0
ITLB AVERAGE MISS LATENCY: 9.64728 cycles
ITLB RQ	ACCESS:    9451899	FORWARD:          0	MERGED:    1022071	TO_CACHE:    8429828

Revised Interactions: positive negative neutral
ITLB_interactions 0 0 0 -nan -nan -nan
DTLB TOTAL     ACCESS:   19795776  HIT:   18747869  MISS:    1047907  HIT %:    94.7064  MISS %:    5.29359   MPKI: 20.9581
DTLB LOAD TRANSLATION ACCESS:   19795776  HIT:   18747869  MISS:    1047907  HIT %:    94.7064  MISS %:    5.29359   MPKI: 20.9581
DTLB PREFETCH  REQUESTED:          0  ISSUED:          0  USEFUL:          0  USELESS:          0
DTLB USEFUL LOAD PREFETCHES:          0 PREFETCH ISSUED TO LOWER LEVEL:          0  ACCURACY: -nan
DTLB TIMELY PREFETCHES:          0 LATE PREFETCHES: 0 DROPPED PREFETCHES: 0
DTLB PREFETCHES SAME FILL-ORIGIN LEVEL: 0 DIFFERENT FILL-ORIGIN LEVEL: 0
DTLB AVERAGE MISS LATENCY: 28.7245 cycles
DTLB RQ	ACCESS:   22337451	FORWARD:          0	MERGED:    2525573	TO_CACHE:   19811878

Revised Interactions: positive negative neutral
DTLB_interactions 0 0 0 -nan -nan -nan
STLB TOTAL     ACCESS:    2940755  HIT:    2698387  MISS:     242368  HIT %:    91.7583  MISS %:    8.24169   MPKI: 4.84736
STLB LOAD TRANSLATION ACCESS:    1126760  HIT:     884393  MISS:     242367  HIT %:    78.4899  MISS %:    21.5101   MPKI: 4.84734
STLB TRANSLATION FROM L1D PREFETCHER ACCESS:    1813995  HIT:    1813994  MISS:          1  HIT %:    99.9999  MISS %: 5.51269e-05   MPKI: 2e-05
STLB PREFETCH  REQUESTED:          0  ISSUED:          0  USEFUL:          1  USELESS:          0
STLB USEFUL LOAD PREFETCHES:          1 PREFETCH ISSUED TO LOWER LEVEL:          0  ACCURACY: inf
STLB TIMELY PREFETCHES:          1 LATE PREFETCHES: 0 DROPPED PREFETCHES: 0
STLB PREFETCHES SAME FILL-ORIGIN LEVEL: 0 DIFFERENT FILL-ORIGIN LEVEL: 0
STLB AVERAGE MISS LATENCY: 85.3365 cycles
STLB RQ	ACCESS:    3292247	FORWARD:          0	MERGED:     351493	TO_CACHE:    2940754

Revised Interactions: positive negative neutral
STLB_interactions 0 0 0 -nan -nan -nan
STLB Hit, L1D data hit: 0
STLB Hit, L2C data hit: 0
STLB Hit, LLC data hit: 0
STLB Hit, LLC data miss: 0
STLB STLB hints to L2: 0
L1D TOTAL     ACCESS:   24149890  HIT:   22491460  MISS:    1658430  HIT %:    93.1328  MISS %:    6.86724   MPKI: 33.1686
L1D LOAD      ACCESS:   13029998  HIT:   12259123  MISS:     770875  HIT %:    94.0838  MISS %:    5.91616   MPKI: 15.4175
L1D RFO       ACCESS:    9014022  HIT:    8904896  MISS:     109126  HIT %:    98.7894  MISS %:    1.21062   MPKI: 2.18252
L1D PREFETCH  ACCESS:    2105870  HIT:    1327441  MISS:     778429  HIT %:    63.0353  MISS %:    36.9647   MPKI: 15.5686
L1D PREFETCH  REQUESTED:    4331311  ISSUED:    4331311  USEFUL:     109154  USELESS:     669290
L1D USEFUL LOAD PREFETCHES:     109154 PREFETCH ISSUED TO LOWER LEVEL:     784129  ACCURACY: 13.9204
L1D TIMELY PREFETCHES:     109154 LATE PREFETCHES: 18390 DROPPED PREFETCHES: 0
L1D PREFETCHES SAME FILL-ORIGIN LEVEL: 784129 DIFFERENT FILL-ORIGIN LEVEL: 0
L1D AVERAGE MISS LATENCY: 484432 cycles
L1D RQ	ACCESS:   16095526	FORWARD:          0	MERGED:    2345969	TO_CACHE:   13135039
L1D WQ	ACCESS:    9279558	FORWARD:     614855	MERGED:      77146	TO_CACHE:    9202412
L1D PQ	ACCESS:    2165824	FORWARD:          0	MERGED:          0	TO_CACHE:    2165487

Revised Interactions: positive negative neutral
L1D_interactions 0 0 0 -nan -nan -nan
L1D UNIQUE REGIONS ACCESSED: 0
L1D REGIONS CONFLICTS: 0
L1D Cross Page Prefetch Requests: 0
L1D Same Page Prefetch Requests: 4219993
L1D ROI Sum of L1D PQ occupancy: 28068243
L1D PREFETCHES PUSHED FROM L2C: 0
L1I TOTAL     ACCESS:    9442318  HIT:    9409987  MISS:      32331  HIT %:    99.6576  MISS %:   0.342405   MPKI: 0.64662
L1I LOAD      ACCESS:    9442318  HIT:    9409987  MISS:      32331  HIT %:    99.6576  MISS %:   0.342405   MPKI: 0.64662
L1I PREFETCH  REQUESTED:          0  ISSUED:          0  USEFUL:          0  USELESS:          0
L1I USEFUL LOAD PREFETCHES:          0 PREFETCH ISSUED TO LOWER LEVEL:          0  ACCURACY: -nan
L1I TIMELY PREFETCHES:          0 LATE PREFETCHES: 0 DROPPED PREFETCHES: 0
L1I PREFETCHES SAME FILL-ORIGIN LEVEL: 0 DIFFERENT FILL-ORIGIN LEVEL: 0
L1I AVERAGE MISS LATENCY: 24.7061 cycles
L1I RQ	ACCESS:   14241287	FORWARD:          0	MERGED:    4789388	TO_CACHE:    9451899

Revised Interactions: positive negative neutral
L1I_interactions 0 0 0 -nan -nan -nan
BTB TOTAL     ACCESS:    8221303  HIT:    7737787  MISS:     483516  HIT %:    94.1187  MISS %:    5.88126   MPKI: 9.67032
BTB BRANCH_DIRECT_JUMP	ACCESS:     583527  HIT:     583406  MISS:        121
BTB BRANCH_INDIRECT	ACCESS:     168431  HIT:     142564  MISS:      25867
BTB BRANCH_CONDITIONAL	ACCESS:    4427120  HIT:    4426664  MISS:        456
BTB BRANCH_DIRECT_CALL	ACCESS:     930265  HIT:     930030  MISS:        235
BTB BRANCH_INDIRECT_CALL	ACCESS:     590847  HIT:     588506  MISS:       2341
BTB BRANCH_RETURN	ACCESS:    1521113  HIT:    1066617  MISS:     454496
BTB BRANCH_OTHER ACCESS:          0  HIT:          0  MISS:          0

L2C TOTAL     ACCESS:    2603725  HIT:    1254641  MISS:    1349084  HIT %:    48.1864  MISS %:    51.8136   MPKI: 26.9817
L2C LOAD      ACCESS:     803179  HIT:     274215  MISS:     528964  HIT %:    34.1412  MISS %:    65.8588   MPKI: 10.5793
L2C DATA LOAD MPKI: 10.4947
L2C INSTRUCTION LOAD MPKI: 0.08462
L2C RFO       ACCESS:     103415  HIT:      19457  MISS:      83958  HIT %:    18.8145  MISS %:    81.1855   MPKI: 1.67916
L2C PREFETCH  ACCESS:     871755  HIT:     294353  MISS:     577402  HIT %:    33.7656  MISS %:    66.2344   MPKI: 11.548
L2C DATA PREFETCH MPKI: 11.548
L2C INSTRUCTION PREFETCH MPKI: 0
L2C WRITEBACK ACCESS:     477955  HIT:     472560  MISS:       5395  HIT %:    98.8712  MISS %:    1.12877   MPKI: 0.1079
L2C LOAD TRANSLATION ACCESS:     347420  HIT:     194055  MISS:     153365  HIT %:     55.856  MISS %:     44.144   MPKI: 3.0673
L2C TRANSLATION FROM L1D PREFETCHER ACCESS:          1  HIT:          1  MISS:          0  HIT %:        100  MISS %:          0   MPKI: 0
L2C PREFETCH  REQUESTED:      94903  ISSUED:      94903  USEFUL:      32602  USELESS:     544877
L2C USEFUL LOAD PREFETCHES:      32602 PREFETCH ISSUED TO LOWER LEVEL:     578148  ACCURACY: 5.63904
L2C TIMELY PREFETCHES:      32602 LATE PREFETCHES: 747 DROPPED PREFETCHES: 0
L2C PREFETCHES SAME FILL-ORIGIN LEVEL: 47004 DIFFERENT FILL-ORIGIN LEVEL: 0
L2C AVERAGE MISS LATENCY: 149.066 cycles
L2C RQ	ACCESS:    1254052	FORWARD:          0	MERGED:          0	TO_CACHE:    1254015
L2C WQ	ACCESS:     477955	FORWARD:         51	MERGED:          0	TO_CACHE:     477955
L2C PQ	ACCESS:     879032	FORWARD:          0	MERGED:       2187	TO_CACHE:     876831

Revised Interactions: positive negative neutral
L2C_interactions 42862 558628 283215 4.84478 63.1429 32.0124
L2C Instructions Evicting Data 3719
L2C Translations Evicting Data 135350
L2C Data Evicting Data 1047487
L2C Instructions Evicting Instructions 35
L2C Translations Evicting Instructions 449
L2C Data Evicting Instructions 3709
L2C Instructions Evicting Translations 477
L2C Translations Evicting Translations 17566
L2C Data Evicting Translations 134897
L2C Dense regions hint from L2: 0
PSCL5 TOTAL     ACCESS:     242368  HIT:     242368  MISS:          0  HIT %:        100  MISS %:          0   MPKI: 0
PSCL5 LOAD TRANSLATION ACCESS:     242367  HIT:     242367  MISS:          0  HIT %:        100  MISS %:          0   MPKI: 0
PSCL5 TRANSLATION FROM L1D PREFETCHER ACCESS:          1  HIT:          1  MISS:          0  HIT %:        100  MISS %:          0   MPKI: 0
PSCL5 PREFETCH  REQUESTED:          0  ISSUED:          0  USEFUL:          0  USELESS:          0
PSCL5 USEFUL LOAD PREFETCHES:          0 PREFETCH ISSUED TO LOWER LEVEL:          0  ACCURACY: -nan
PSCL5 TIMELY PREFETCHES:          0 LATE PREFETCHES: 0 DROPPED PREFETCHES: 0
PSCL5 PREFETCHES SAME FILL-ORIGIN LEVEL: 0 DIFFERENT FILL-ORIGIN LEVEL: 0

Revised Interactions: positive negative neutral
PSCL5_interactions 0 0 0 -nan -nan -nan
PSCL4 TOTAL     ACCESS:     242368  HIT:     242368  MISS:          0  HIT %:        100  MISS %:          0   MPKI: 0
PSCL4 LOAD TRANSLATION ACCESS:     242367  HIT:     242367  MISS:          0  HIT %:        100  MISS %:          0   MPKI: 0
PSCL4 TRANSLATION FROM L1D PREFETCHER ACCESS:          1  HIT:          1  MISS:          0  HIT %:        100  MISS %:          0   MPKI: 0
PSCL4 PREFETCH  REQUESTED:          0  ISSUED:          0  USEFUL:          0  USELESS:          0
PSCL4 USEFUL LOAD PREFETCHES:          0 PREFETCH ISSUED TO LOWER LEVEL:          0  ACCURACY: -nan
PSCL4 TIMELY PREFETCHES:          0 LATE PREFETCHES: 0 DROPPED PREFETCHES: 0
PSCL4 PREFETCHES SAME FILL-ORIGIN LEVEL: 0 DIFFERENT FILL-ORIGIN LEVEL: 0

Revised Interactions: positive negative neutral
PSCL4_interactions 0 0 0 -nan -nan -nan
PSCL3 TOTAL     ACCESS:     242368  HIT:     242368  MISS:          0  HIT %:        100  MISS %:          0   MPKI: 0
PSCL3 LOAD TRANSLATION ACCESS:     242367  HIT:     242367  MISS:          0  HIT %:        100  MISS %:          0   MPKI: 0
PSCL3 TRANSLATION FROM L1D PREFETCHER ACCESS:          1  HIT:          1  MISS:          0  HIT %:        100  MISS %:          0   MPKI: 0
PSCL3 PREFETCH  REQUESTED:          0  ISSUED:          0  USEFUL:          0  USELESS:          0
PSCL3 USEFUL LOAD PREFETCHES:          0 PREFETCH ISSUED TO LOWER LEVEL:          0  ACCURACY: -nan
PSCL3 TIMELY PREFETCHES:          0 LATE PREFETCHES: 0 DROPPED PREFETCHES: 0
PSCL3 PREFETCHES SAME FILL-ORIGIN LEVEL: 0 DIFFERENT FILL-ORIGIN LEVEL: 0

Revised Interactions: positive negative neutral
PSCL3_interactions 0 0 0 -nan -nan -nan
PSCL2 TOTAL     ACCESS:     242368  HIT:     137315  MISS:     105053  HIT %:    56.6556  MISS %:    43.3444   MPKI: 2.10106
PSCL2 LOAD TRANSLATION ACCESS:     242367  HIT:     137314  MISS:     105053  HIT %:    56.6554  MISS %:    43.3446   MPKI: 2.10106
PSCL2 TRANSLATION FROM L1D PREFETCHER ACCESS:          1  HIT:          1  MISS:          0  HIT %:        100  MISS %:          0   MPKI: 0
PSCL2 PREFETCH  REQUESTED:          0  ISSUED:          0  USEFUL:          0  USELESS:          0
PSCL2 USEFUL LOAD PREFETCHES:          0 PREFETCH ISSUED TO LOWER LEVEL:          0  ACCURACY: -nan
PSCL2 TIMELY PREFETCHES:          0 LATE PREFETCHES: 0 DROPPED PREFETCHES: 0
PSCL2 PREFETCHES SAME FILL-ORIGIN LEVEL: 0 DIFFERENT FILL-ORIGIN LEVEL: 0

Revised Interactions: positive negative neutral
PSCL2_interactions 0 0 0 -nan -nan -nan
LLC TOTAL     ACCESS:    1706200  HIT:     594895  MISS:    1111305  HIT %:    34.8667  MISS %:    65.1333   MPKI: 22.2261
LLC LOAD      ACCESS:     528253  HIT:     165519  MISS:     362734  HIT %:    31.3333  MISS %:    68.6667   MPKI: 7.25468
LLC RFO       ACCESS:      83922  HIT:      32209  MISS:      51713  HIT %:    38.3797  MISS %:    61.6203   MPKI: 1.03426
LLC PREFETCH  ACCESS:     578149  HIT:      78018  MISS:     500131  HIT %:    13.4944  MISS %:    86.5056   MPKI: 10.0026
LLC WRITEBACK ACCESS:     362511  HIT:     211226  MISS:     151285  HIT %:    58.2675  MISS %:    41.7325   MPKI: 3.0257
LLC LOAD TRANSLATION ACCESS:     153365  HIT:     107923  MISS:      45442  HIT %:      70.37  MISS %:      29.63   MPKI: 0.90884
LLC PREFETCH  REQUESTED:          0  ISSUED:          0  USEFUL:       9517  USELESS:      71066
LLC USEFUL LOAD PREFETCHES:       9517 PREFETCH ISSUED TO LOWER LEVEL:     500131  ACCURACY: 1.9029
LLC TIMELY PREFETCHES:       9517 LATE PREFETCHES: 0 DROPPED PREFETCHES: 0
LLC PREFETCHES SAME FILL-ORIGIN LEVEL: 0 DIFFERENT FILL-ORIGIN LEVEL: 0
LLC AVERAGE MISS LATENCY: 144.659 cycles
LLC RQ	ACCESS:     765540	FORWARD:          0	MERGED:          0	TO_CACHE:     765540
LLC WQ	ACCESS:     362511	FORWARD:          0	MERGED:          0	TO_CACHE:     362511
LLC PQ	ACCESS:     578148	FORWARD:          0	MERGED:          0	TO_CACHE:     578148

Revised Interactions: positive negative neutral
LLC_interactions 525 77910 30965 0.47989 71.2157 28.3044
LLC Dense regions hint to LLC: 0

RAW hits: 606967
Loads Generated: 16702493
Loads sent to L1D: 16095526
Stores Generated: 9279545
Stores sent to L1D: 9279558
Major fault: 0 Minor fault: 49694
Allocated PAGES: 49694

stream: 
stream:times selected: 6389225
stream:pref_filled: 1074190
stream:pref_useful: 189929
stream:pref_late: 24374
stream:misses: 241948
stream:misses_by_poll: 0

CS: 
CS:times selected: 33177
CS:pref_filled: 10082
CS:pref_useful: 2552
CS:pref_late: 1
CS:misses: 552
CS:misses_by_poll: 0

CPLX: 
CPLX:times selected: 6343842
CPLX:pref_filled: 430362
CPLX:pref_useful: 21445
CPLX:pref_late: 890
CPLX:misses: 780051
CPLX:misses_by_poll: 527

NL_L1: 
NL:times selected: 32979
NL:pref_filled: 11504
NL:pref_useful: 2292
NL:pref_late: 352
NL:misses: 9138
NL:misses_by_poll: 1

total selections: 12799223
total_filled: 778429
total_useful: 109154
total_late: 25785
total_polluted: 528
total_misses_after_warmup: 875917
conflicts: 1938547
Degree Incremented Times: 0
Degree Decremented Times: 473313

L1 IP Table Write Accesses: 9689794
L1 IP Table Read Accesses: 7751247
L1 RST Write Accesses: 3504099
L1 RST Read Accesses: 7008198
L1 CSPT Write Accesses: 3504099
L1 CSPT Read Accesses: 6983415
L1 RR Filter Tag Write Accesses: 2165824
L1 RR Filter Tag Read Accesses: 125876900
L1 IP Table Tag Write Accesses: 13135040
L1 IP Table Tag Read Accesses: 13135040
L1 RST Tag Write Accesses: 0
L1 RST Tag Read Accesses: 38335588
L1 RR Filter Write Accesses: 0
L1 RR Filter Read Accesses: 4350896
test: 3046263
L2 IP Table Read Accesses: 3006638
L2 IP Table Write Accesses: 2350819
L2 IP Table Tag Read Accesses: 1551312
L2 IP Table Tag Write Accesses: 1551312

DRAM Statistics
 CHANNEL 0
 RQ ROW_BUFFER_HIT:      81276  ROW_BUFFER_MISS:     878741
 DBUS_CONGESTED:        129
 WQ ROW_BUFFER_HIT:      54954  ROW_BUFFER_MISS:     203237  FULL:          0

 AVG_CONGESTED_CYCLE: 4
 All warmup complete: 2
Channel 0 Bank busy for read cycles: 0
Channel 0 Bank busy for write cycles: 0
Channel 0
Rank 0
0banks busy for read cycles: 120622894
0banks busy for write cycles: 126674
1banks busy for read cycles: 46940284
1banks busy for write cycles: 19831326
2banks busy for read cycles: 24474079
2banks busy for write cycles: 7407020
3banks busy for read cycles: 7823422
3banks busy for write cycles: 2952932
4banks busy for read cycles: 2859040
4banks busy for write cycles: 1198138
5banks busy for read cycles: 798418
5banks busy for write cycles: 456677
6banks busy for read cycles: 158129
6banks busy for write cycles: 153819
7banks busy for read cycles: 18857
7banks busy for write cycles: 41096
8banks busy for read cycles: 994
8banks busy for write cycles: 7108

CPU 0 Branch Prediction Accuracy: 94.8055% MPKI: 10.9068 Average ROB Occupancy at Mispredict: 24.9217
Branch types
NOT_BRANCH: 39501219 79.0024%
BRANCH_DIRECT_JUMP: 583527 1.16705%
BRANCH_INDIRECT: 168431 0.336862%
BRANCH_CONDITIONAL: 6704263 13.4085%
BRANCH_DIRECT_CALL: 930265 1.86053%
BRANCH_INDIRECT_CALL: 590847 1.18169%
BRANCH_RETURN: 1521113 3.04223%
BRANCH_OTHER: 0 0%

@sumon_overall_L1D    109154     18390     18390    669290    778429   4331311   4331311
@Sumon_Early_by_class_L1D     94202      1119     11523       131
@Sumon_Late_by_class_L1D      9621         0       510       131

@Sumon_Early_by_cycle_L1D     17596      7931      5962      3349      2999     15134     14140      8816      4949     12788      9182      6308
@Sumon_Late_by_cycle_L1D       449      1558       641      1728      5929         0
@Sumon_Early_stream_L1D     16296      7029      5244      2910      2672     13400     12051      7564      3997     10401      7254      5384
@Sumon_Early_CS_L1D         0         2         2         6         9         5       817       153        63        17        24        21
@Sumon_Early_CPLX_L1D       596       461       626       356       257      1466      1069       996       821      2208      1812       855
@Sumon_Late_stream_L1D       407      1467       576      1614      5557         0
@Sumon_Late_CS_L1D         0         0         0         0         0         0
@Sumon_Late_CPLX_L1D        30        76        40        89       275         0
@sumon_overall_L2C     32602       747         0    544877    577402     94903     94903
@Sumon_Early_by_class_L2C     14945        17      5816         0
@Sumon_Late_by_class_L2C         0         0         0         0

@Sumon_Early_by_cycle_L2C      1606       962       560       476       812      2782      2698       504       393       468      1713     19628
@Sumon_Late_by_cycle_L2C        30        27       208       137       345         0
@Sumon_Early_stream_L2C         0         0         0         0         0         0         0         0         5       155      1044     13741
@Sumon_Early_CS_L2C         0         0         0         0         0         0         0         0         0         1         4        12
@Sumon_Early_CPLX_L2C         0         0         0         0         0         0         0         0         0        46       394      5376
@Sumon_Late_stream_L2C         0         0         0         0         0         0
@Sumon_Late_CS_L2C         0         0         0         0         0         0
@Sumon_Late_CPLX_L2C         0         0         0         0         0         0
DRAM PAGES: 1048576
Allocated PAGES: 49694
