
*** ChampSim Multicore Out-of-Order Simulator ***

Warmup Instructions: 50000000
Simulation Instructions: 50000000
Number of CPUs: 1
LLC sets: 2048
LLC ways: 16
Off-chip DRAM Size: 4096 MB Channels: 1 Width: 64-bit Data Rate: 6400 MT/s
CPU 0 runs ../../biswa/SPEC2017Traces/628.pop2_s-17B.champsimtrace.xz
.xz
CPU 0 Bimodal branch predictor
BTB has LRU replacement policy
ITLB has LRU replacement policy
DTLB has LRU replacement policy
STLB has LRU replacement policy
L1I has LRU replacement policy
IP Table Entries: 256
L1D has LRU replacement policy
IP_Table L2 entries: 256
Initialize DRRIP state for L2C
epoch: 1000
next table: 2313
cur table: 5912
epoch: 1000
next table: 1455
cur table: 2313
epoch: 1000
next table: 1565
cur table: 1455
epoch: 1000
next table: 1765
cur table: 1565
epoch: 1000
next table: 1700
cur table: 1765
epoch: 1000
next table: 1535
cur table: 1700
epoch: 1000
next table: 1544
cur table: 1535
epoch: 1000
next table: 1835
cur table: 1544
epoch: 1000
next table: 1900
cur table: 1835
epoch: 1000
next table: 1701
cur table: 1900
epoch: 1000
next table: 1798
cur table: 1701
epoch: 1000
next table: 1699
cur table: 1798
epoch: 1000
next table: 1805
cur table: 1699
epoch: 1000
next table: 1933
cur table: 1805
epoch: 1000
next table: 1724
cur table: 1933
epoch: 1000
next table: 1973
cur table: 1724
epoch: 1000
next table: 1410
cur table: 1973
epoch: 1000
next table: 1256
cur table: 1410
epoch: 1000
next table: 1520
cur table: 1256
epoch: 1000
next table: 1763
cur table: 1520
epoch: 1000
next table: 1675
cur table: 1763
epoch: 1000
next table: 1573
cur table: 1675
epoch: 1000
next table: 1469
cur table: 1573
epoch: 1000
next table: 1904
cur table: 1469
epoch: 1000
next table: 1858
cur table: 1904
epoch: 1000
next table: 1726
cur table: 1858
epoch: 1000
next table: 1892
cur table: 1726
epoch: 1000
next table: 1661
cur table: 1892
epoch: 1000
next table: 1776
cur table: 1661
epoch: 1000
next table: 2016
cur table: 1776
epoch: 1000
next table: 1620
cur table: 2016
epoch: 1000
next table: 1952
cur table: 1620
epoch: 1000
next table: 1403
cur table: 1952
epoch: 1000
next table: 1253
cur table: 1403
epoch: 1000
next table: 1532
cur table: 1253
epoch: 1000
next table: 1924
cur table: 1532
epoch: 1000
next table: 1495
cur table: 1924
epoch: 1000
next table: 1580
cur table: 1495
epoch: 1000
next table: 1497
cur table: 1580
epoch: 1000
next table: 1810
cur table: 1497
epoch: 1000
next table: 1843
cur table: 1810
epoch: 1000
next table: 1731
cur table: 1843
epoch: 1000
next table: 1854
cur table: 1731
epoch: 1000
next table: 1643
cur table: 1854
epoch: 1000
next table: 1767
cur table: 1643
epoch: 1000
next table: 2049
cur table: 1767
epoch: 1000
next table: 1609
cur table: 2049
epoch: 1000
next table: 1982
cur table: 1609
epoch: 1000
next table: 1386
cur table: 1982
epoch: 1000
next table: 1270
cur table: 1386
epoch: 1000
next table: 1596
cur table: 1270
epoch: 1000
next table: 1982
cur table: 1596
epoch: 1000
next table: 1384
cur table: 1982
epoch: 1000
next table: 1706
cur table: 1384
epoch: 1000
next table: 1341
cur table: 1706
epoch: 1000
next table: 2024
cur table: 1341
epoch: 1000
next table: 1681
cur table: 2024
epoch: 1000
next table: 1726
cur table: 1681
epoch: 1000
next table: 1797
cur table: 1726
epoch: 1000
next table: 1567
cur table: 1797
epoch: 1000
next table: 1862
cur table: 1567
epoch: 1000
next table: 1998
cur table: 1862
epoch: 1000
next table: 1651
cur table: 1998
epoch: 1000
next table: 1949
cur table: 1651
epoch: 1000
next table: 1407
cur table: 1949
epoch: 1000
next table: 1265
cur table: 1407
epoch: 1000
next table: 1551
cur table: 1265
epoch: 1000
next table: 1954
cur table: 1551
epoch: 1000
next table: 1463
cur table: 1954
epoch: 1000
next table: 1611
cur table: 1463
epoch: 1000
next table: 1443
cur table: 1611
epoch: 1000
next table: 1830
cur table: 1443
epoch: 1000
next table: 1850
cur table: 1830
epoch: 1000
next table: 3239
cur table: 26038
epoch: 1000
next table: 1741
cur table: 1850
epoch: 1000
next table: 1870
cur table: 1741
epoch: 1000
next table: 1611
cur table: 1870
epoch: 1000
next table: 1802
cur table: 1611
epoch: 1000
next table: 2021
cur table: 1802
epoch: 1000
next table: 1615
cur table: 2021
epoch: 1000
next table: 1974
cur table: 1615
epoch: 1000
next table: 1429
cur table: 1974
epoch: 1000
next table: 1266
cur table: 1429
epoch: 1000
next table: 3806
cur table: 3239
epoch: 1000
next table: 1537
cur table: 1266
epoch: 1000
next table: 1806
cur table: 1537
epoch: 1000
next table: 1605
cur table: 1806
epoch: 1000
next table: 1576
cur table: 1605
epoch: 1000
next table: 2383
cur table: 3806
epoch: 1000
next table: 1498
cur table: 1576
epoch: 1000
next table: 1813
cur table: 1498
epoch: 1000
next table: 1847
cur table: 1813
epoch: 1000
next table: 1742
cur table: 1847
epoch: 1000
next table: 2273
cur table: 2383
epoch: 1000
next table: 1806
cur table: 1742
epoch: 1000
next table: 1586
cur table: 1806
epoch: 1000
next table: 1867
cur table: 1586
epoch: 1000
next table: 1923
cur table: 1867
epoch: 1000
next table: 1714
cur table: 1923
epoch: 1000
next table: 1931
cur table: 1714
epoch: 1000
next table: 3192
cur table: 2273
epoch: 1000
next table: 1444
cur table: 1931
epoch: 1000
next table: 1283
cur table: 1444
epoch: 1000
next table: 1524
cur table: 1283
epoch: 1000
next table: 1714
cur table: 1524
epoch: 1000
next table: 2522
cur table: 3192
epoch: 1000
next table: 1724
cur table: 1714
epoch: 1000
next table: 1476
cur table: 1724
epoch: 1000
next table: 1531
cur table: 1476
epoch: 1000
next table: 1673
cur table: 2522
epoch: 1000
next table: 1745
cur table: 1531
epoch: 1000
next table: 1987
cur table: 1745
epoch: 1000
next table: 1456
cur table: 1987
epoch: 1000
next table: 2189
cur table: 1673
epoch: 1000
next table: 1989
cur table: 1456
epoch: 1000
next table: 1644
cur table: 1989
epoch: 1000
next table: 1853
cur table: 1644
epoch: 1000
next table: 1960
cur table: 1853
epoch: 1000
next table: 1689
cur table: 1960
epoch: 1000
next table: 1945
cur table: 1689
epoch: 1000
next table: 1432
cur table: 1945
epoch: 1000
next table: 3043
cur table: 2189
epoch: 1000
next table: 1343
cur table: 1432
epoch: 1000
next table: 1500
cur table: 1343
epoch: 1000
next table: 1416
cur table: 1500
epoch: 1000
next table: 2076
cur table: 1416
epoch: 1000
next table: 2413
cur table: 3043
epoch: 1000
next table: 1486
cur table: 2076
epoch: 1000
next table: 1532
cur table: 1486
epoch: 1000
next table: 1709
cur table: 2413
epoch: 1000
next table: 1714
cur table: 1532
epoch: 1000
next table: 1979
cur table: 1714
Heartbeat CPU 0 instructions: 10000003 cycles: 2997356 heartbeat IPC: 3.33627 cumulative IPC: 3.33627 (Simulation time: 0 hr 4 min 14 sec) 
epoch: 1000
next table: 1495
cur table: 1979
epoch: 1000
next table: 2112
cur table: 1709
epoch: 1000
next table: 1994
cur table: 1495
epoch: 1000
next table: 1700
cur table: 1994
epoch: 1000
next table: 1868
cur table: 1700
epoch: 1000
next table: 1917
cur table: 1868
epoch: 1000
next table: 1692
cur table: 1917
epoch: 1000
next table: 1943
cur table: 1692
epoch: 1000
next table: 1440
cur table: 1943
epoch: 1000
next table: 3037
cur table: 2112
epoch: 1000
next table: 1283
cur table: 1440
epoch: 1000
next table: 1545
cur table: 1283
epoch: 1000
next table: 1538
cur table: 1545
epoch: 1000
next table: 1872
cur table: 1538
epoch: 1000
next table: 2398
cur table: 3037
epoch: 1000
next table: 1486
cur table: 1872
epoch: 1000
next table: 1492
cur table: 1486
epoch: 1000
next table: 1704
cur table: 2398
epoch: 1000
next table: 1582
cur table: 1492
epoch: 1000
next table: 1972
cur table: 1582
epoch: 1000
next table: 1625
cur table: 1972
epoch: 1000
next table: 1941
cur table: 1704
epoch: 1000
next table: 1864
cur table: 1625
epoch: 1000
next table: 1748
cur table: 1864
epoch: 1000
next table: 1864
cur table: 1748
epoch: 1000
next table: 1985
cur table: 1864
epoch: 1000
next table: 1655
cur table: 1985
epoch: 1000
next table: 1923
cur table: 1655
epoch: 1000
next table: 1480
cur table: 1923
epoch: 1000
next table: 3250
cur table: 1941
epoch: 1000
next table: 1331
cur table: 1480
epoch: 1000
next table: 1531
cur table: 1331
epoch: 1000
next table: 1409
cur table: 1531
epoch: 1000
next table: 2068
cur table: 1409
epoch: 1000
next table: 2394
cur table: 3250
epoch: 1000
next table: 1504
cur table: 2068
epoch: 1000
next table: 1549
cur table: 1504
epoch: 1000
next table: 1693
cur table: 2394
epoch: 1000
next table: 1745
cur table: 1549
epoch: 1000
next table: 1979
cur table: 1745
epoch: 1000
next table: 1703
cur table: 1979
epoch: 1000
next table: 1763
cur table: 1703
epoch: 1000
next table: 2142
cur table: 1693
epoch: 1000
next table: 1633
cur table: 1763
epoch: 1000
next table: 1874
cur table: 1633
epoch: 1000
next table: 1958
cur table: 1874
epoch: 1000
next table: 1669
cur table: 1958
epoch: 1000
next table: 1914
cur table: 1669
epoch: 1000
next table: 1457
cur table: 1914
epoch: 1000
next table: 1342
cur table: 1457
epoch: 1000
next table: 3355
cur table: 2142
epoch: 1000
next table: 1551
cur table: 1342
epoch: 1000
next table: 1560
cur table: 1551
epoch: 1000
next table: 1880
cur table: 1560
epoch: 1000
next table: 2140
cur table: 3355
epoch: 1000
next table: 1507
cur table: 1880
epoch: 1000
next table: 1586
cur table: 1507
epoch: 1000
next table: 1696
cur table: 2140
epoch: 1000
next table: 1740
cur table: 1586
epoch: 1000
next table: 1926
cur table: 1740
epoch: 1000
next table: 1571
cur table: 1926
epoch: 1000
next table: 1887
cur table: 1571
epoch: 1000
next table: 2130
cur table: 1696
epoch: 1000
next table: 1602
cur table: 1887
epoch: 1000
next table: 1893
cur table: 1602
epoch: 1000
next table: 1890
cur table: 1893
epoch: 1000
next table: 1727
cur table: 1890
epoch: 1000
next table: 1959
cur table: 1727
epoch: 1000
next table: 1402
cur table: 1959
epoch: 1000
next table: 1338
cur table: 1402
epoch: 1000
next table: 3172
cur table: 2130
epoch: 1000
next table: 1511
cur table: 1338
epoch: 1000
next table: 1401
cur table: 1511
epoch: 1000
next table: 2047
cur table: 1401
epoch: 1000
next table: 2219
cur table: 3172
epoch: 1000
next table: 1520
cur table: 2047
epoch: 1000
next table: 1544
cur table: 1520
epoch: 1000
next table: 1692
cur table: 2219
epoch: 1000
next table: 1796
cur table: 1544
epoch: 1000
next table: 1870
cur table: 1796
epoch: 1000
next table: 1693
cur table: 1870
epoch: 1000
next table: 1788
cur table: 1693
epoch: 1000
next table: 2160
cur table: 1692
epoch: 1000
next table: 1684
cur table: 1788
epoch: 1000
next table: 1830
cur table: 1684
epoch: 1000
next table: 1964
cur table: 1830
epoch: 1000
next table: 1688
cur table: 1964
epoch: 1000
next table: 1990
cur table: 1688
epoch: 1000
next table: 1414
cur table: 1990
epoch: 1000
next table: 3138
cur table: 2160
epoch: 1000
next table: 1271
cur table: 1414
epoch: 1000
next table: 1533
cur table: 1271
epoch: 1000
next table: 1969
cur table: 1533
epoch: 1000
next table: 2184
cur table: 3138
epoch: 1000
next table: 1447
cur table: 1969
epoch: 1000
next table: 1605
cur table: 1447
epoch: 1000
next table: 1476
cur table: 1605
epoch: 1000
next table: 1706
cur table: 2184
epoch: 1000
next table: 1920
cur table: 1476
epoch: 1000
next table: 1744
cur table: 1920
epoch: 1000
next table: 1776
cur table: 1744
epoch: 1000
next table: 2102
cur table: 1706
epoch: 1000
next table: 1988
cur table: 1776
epoch: 1000
next table: 1836
cur table: 1988
epoch: 1000
next table: 1503
cur table: 1836
epoch: 1000
next table: 2075
cur table: 1503
epoch: 1000
next table: 1533
cur table: 2075
epoch: 1000
next table: 2037
cur table: 1533
epoch: 1000
next table: 1333
cur table: 2037
epoch: 1000
next table: 3113
cur table: 2102
epoch: 1000
next table: 1328
cur table: 1333
epoch: 1000
next table: 1603
cur table: 1328
epoch: 1000
next table: 2027
cur table: 1603
epoch: 1000
next table: 2252
cur table: 3113
epoch: 1000
next table: 1338
cur table: 2027
epoch: 1000
next table: 1678
cur table: 1338
epoch: 1000
next table: 1629
cur table: 1678
epoch: 1000
next table: 1746
cur table: 2252
epoch: 1000
next table: 1876
cur table: 1629
epoch: 1000
next table: 1737
cur table: 1876
epoch: 1000
next table: 1684
cur table: 1737
epoch: 1000
next table: 1841
cur table: 1684
epoch: 1000
next table: 2281
cur table: 1746
epoch: 1000
next table: 1978
cur table: 1841
epoch: 1000
next table: 1884
cur table: 1978
epoch: 1000
next table: 1694
cur table: 1884
epoch: 1000
next table: 1769
cur table: 1694
epoch: 1000
next table: 1727
cur table: 1769
epoch: 1000
next table: 1308
cur table: 1727
epoch: 1000
next table: 2950
cur table: 2281
epoch: 1000
next table: 1429
cur table: 1308
epoch: 1000
next table: 1412
cur table: 1429
epoch: 1000
next table: 2174
cur table: 1412
epoch: 1000
next table: 2206
cur table: 2950
epoch: 1000
next table: 1222
cur table: 2174
epoch: 1000
next table: 1723
cur table: 1222
epoch: 1000
next table: 1686
cur table: 2206
epoch: 1000
next table: 1598
cur table: 1723
epoch: 1000
next table: 1892
cur table: 1598
epoch: 1000
next table: 1706
cur table: 1892
epoch: 1000
next table: 1771
cur table: 1706
epoch: 1000
next table: 2131
cur table: 1686
epoch: 1000
next table: 1725
cur table: 1771
epoch: 1000
next table: 1986
cur table: 1725
epoch: 1000
next table: 1813
cur table: 1986
epoch: 1000
next table: 1661
cur table: 1813
epoch: 1000
next table: 1695
cur table: 1661
epoch: 1000
next table: 1902
cur table: 1695
epoch: 1000
next table: 1316
cur table: 1902
epoch: 1000
next table: 3142
cur table: 2131
epoch: 1000
next table: 1432
cur table: 1316
epoch: 1000
next table: 1407
cur table: 1432
epoch: 1000
next table: 2173
cur table: 1407
epoch: 1000
next table: 2272
cur table: 3142
epoch: 1000
next table: 1218
cur table: 2173
epoch: 1000
next table: 1754
cur table: 1218
epoch: 1000
next table: 1667
cur table: 1754
epoch: 1000
next table: 1803
cur table: 2272
epoch: 1000
next table: 1791
cur table: 1667
Heartbeat CPU 0 instructions: 20000001 cycles: 5994862 heartbeat IPC: 3.33611 cumulative IPC: 3.33619 (Simulation time: 0 hr 8 min 10 sec) 
epoch: 1000
next table: 1723
cur table: 1791
epoch: 1000
next table: 1770
cur table: 1723
epoch: 1000
next table: 1757
cur table: 1770
epoch: 1000
next table: 1991
cur table: 1757
epoch: 1000
next table: 2780
cur table: 1803
epoch: 1000
next table: 1889
cur table: 1991
epoch: 1000
next table: 1654
cur table: 1889
epoch: 1000
next table: 1792
cur table: 1654
epoch: 1000
next table: 1741
cur table: 1792
epoch: 1000
next table: 1312
cur table: 1741
epoch: 1000
next table: 2641
cur table: 2780
epoch: 1000
next table: 1464
cur table: 1312
epoch: 1000
next table: 1419
cur table: 1464
epoch: 1000
next table: 2117
cur table: 1419
epoch: 1000
next table: 2066
cur table: 2641
epoch: 1000
next table: 1328
cur table: 2117
epoch: 1000
next table: 1616
cur table: 1328
epoch: 1000
next table: 1611
cur table: 1616
epoch: 1000
next table: 1990
cur table: 1611
epoch: 1000
next table: 2149
cur table: 2066
epoch: 1000
next table: 1616
cur table: 1990
epoch: 1000
next table: 1793
cur table: 1616
epoch: 1000
next table: 1646
cur table: 1793
epoch: 1000
next table: 1978
cur table: 1646
epoch: 1000
next table: 1818
cur table: 1978
epoch: 1000
next table: 1641
cur table: 1818
epoch: 1000
next table: 3041
cur table: 2149
epoch: 1000
next table: 1634
cur table: 1641
epoch: 1000
next table: 1936
cur table: 1634
epoch: 1000
next table: 1329
cur table: 1936
epoch: 1000
next table: 1411
cur table: 1329
epoch: 1000
next table: 1452
cur table: 1411
epoch: 1000
next table: 2396
cur table: 3041
epoch: 1000
next table: 2191
cur table: 1452
epoch: 1000
next table: 1245
cur table: 2191
epoch: 1000
next table: 1696
cur table: 1245
epoch: 1000
next table: 2038
cur table: 2396
epoch: 1000
next table: 1635
cur table: 1696
epoch: 1000
next table: 1881
cur table: 1635
epoch: 1000
next table: 1743
cur table: 1881
epoch: 1000
next table: 2102
cur table: 2038
epoch: 1000
next table: 1841
cur table: 1743
epoch: 1000
next table: 1663
cur table: 1841
epoch: 1000
next table: 1974
cur table: 1663
epoch: 1000
next table: 1668
cur table: 1974
epoch: 1000
next table: 1722
cur table: 1668
epoch: 1000
next table: 1761
cur table: 1722
epoch: 1000
next table: 1916
cur table: 1761
epoch: 1000
next table: 3296
cur table: 2102
epoch: 1000
next table: 1319
cur table: 1916
epoch: 1000
next table: 1432
cur table: 1319
epoch: 1000
next table: 1413
cur table: 1432
epoch: 1000
next table: 2177
cur table: 1413
epoch: 1000
next table: 2348
cur table: 3296
epoch: 1000
next table: 1291
cur table: 2177
epoch: 1000
next table: 1657
cur table: 1291
epoch: 1000
next table: 1620
cur table: 1657
epoch: 1000
next table: 1716
cur table: 2348
epoch: 1000
next table: 1760
cur table: 1620
epoch: 1000
next table: 1784
cur table: 1760
epoch: 1000
next table: 1658
cur table: 1784
epoch: 1000
next table: 1842
cur table: 1658
epoch: 1000
next table: 2431
cur table: 1716
epoch: 1000
next table: 1968
cur table: 1842
epoch: 1000
next table: 1801
cur table: 1968
epoch: 1000
next table: 1646
cur table: 1801
epoch: 1000
next table: 1617
cur table: 1646
epoch: 1000
next table: 1980
cur table: 1617
epoch: 1000
next table: 1342
cur table: 1980
epoch: 1000
next table: 2999
cur table: 2431
epoch: 1000
next table: 1390
cur table: 1342
epoch: 1000
next table: 1485
cur table: 1390
epoch: 1000
next table: 2148
cur table: 1485
epoch: 1000
next table: 2163
cur table: 2999
epoch: 1000
next table: 1240
cur table: 2148
epoch: 1000
next table: 1705
cur table: 1240
epoch: 1000
next table: 1601
cur table: 1705
epoch: 1000
next table: 1908
cur table: 1601
epoch: 1000
next table: 2107
cur table: 2163
epoch: 1000
next table: 1702
cur table: 1908
epoch: 1000
next table: 1648
cur table: 1702
epoch: 1000
next table: 1864
cur table: 1648
epoch: 1000
next table: 1984
cur table: 1864
epoch: 1000
next table: 1518
cur table: 1984
epoch: 1000
next table: 1846
cur table: 1518
epoch: 1000
next table: 2874
cur table: 2107
epoch: 1000
next table: 1513
cur table: 1846
epoch: 1000
next table: 2120
cur table: 1513
epoch: 1000
next table: 1296
cur table: 2120
epoch: 1000
next table: 1292
cur table: 1296
epoch: 1000
next table: 1595
cur table: 1292
epoch: 1000
next table: 2460
cur table: 2874
epoch: 1000
next table: 2122
cur table: 1595
epoch: 1000
next table: 1265
cur table: 2122
epoch: 1000
next table: 1744
cur table: 1265
epoch: 1000
next table: 1924
cur table: 2460
epoch: 1000
next table: 1615
cur table: 1744
epoch: 1000
next table: 1778
cur table: 1615
epoch: 1000
next table: 1544
cur table: 1778
epoch: 1000
next table: 2194
cur table: 1924
epoch: 1000
next table: 1885
cur table: 1544
epoch: 1000
next table: 1890
cur table: 1885
epoch: 1000
next table: 1891
cur table: 1890
epoch: 1000
next table: 1626
cur table: 1891
epoch: 1000
next table: 1852
cur table: 1626
epoch: 1000
next table: 1536
cur table: 1852
epoch: 1000
next table: 2037
cur table: 1536
epoch: 1000
next table: 3099
cur table: 2194
epoch: 1000
next table: 1401
cur table: 2037
epoch: 1000
next table: 1350
cur table: 1401
epoch: 1000
next table: 1544
cur table: 1350
epoch: 1000
next table: 2190
cur table: 1544
epoch: 1000
next table: 2441
cur table: 3099
epoch: 1000
next table: 1364
cur table: 2190
epoch: 1000
next table: 1650
cur table: 1364
epoch: 1000
next table: 1654
cur table: 1650
epoch: 1000
next table: 1759
cur table: 2441
epoch: 1000
next table: 1947
cur table: 1654
epoch: 1000
next table: 1606
cur table: 1947
epoch: 1000
next table: 1883
cur table: 1606
epoch: 1000
next table: 1547
cur table: 1883
epoch: 1000
next table: 2031
cur table: 1547
epoch: 1000
next table: 1874
cur table: 2031
epoch: 1000
next table: 1671
cur table: 1874
epoch: 1000
next table: 3288
cur table: 1759
epoch: 1000
next table: 1804
cur table: 1671
epoch: 1000
next table: 1681
cur table: 1804
epoch: 1000
next table: 1335
cur table: 1681
epoch: 1000
next table: 1492
cur table: 1335
epoch: 1000
next table: 2443
cur table: 3288
epoch: 1000
next table: 1414
cur table: 1492
epoch: 1000
next table: 2097
cur table: 1414
epoch: 1000
next table: 1557
cur table: 2097
epoch: 1000
next table: 1494
cur table: 1557
epoch: 1000
next table: 1942
cur table: 2443
epoch: 1000
next table: 1777
cur table: 1494
epoch: 1000
next table: 1945
cur table: 1777
epoch: 1000
next table: 1668
cur table: 1945
epoch: 1000
next table: 2399
cur table: 1942
epoch: 1000
next table: 1780
cur table: 1668
epoch: 1000
next table: 1657
cur table: 1780
epoch: 1000
next table: 1897
cur table: 1657
epoch: 1000
next table: 1904
cur table: 1897
epoch: 1000
next table: 1732
cur table: 1904
epoch: 1000
next table: 1979
cur table: 1732
epoch: 1000
next table: 1416
cur table: 1979
epoch: 1000
next table: 2913
cur table: 2399
epoch: 1000
next table: 1269
cur table: 1416
epoch: 1000
next table: 1555
cur table: 1269
epoch: 1000
next table: 1999
cur table: 1555
epoch: 1000
next table: 1459
cur table: 1999
epoch: 1000
next table: 2357
cur table: 2913
epoch: 1000
next table: 1679
cur table: 1459
epoch: 1000
next table: 1494
cur table: 1679
epoch: 1000
next table: 1793
cur table: 2357
epoch: 1000
next table: 1906
cur table: 1494
epoch: 1000
next table: 1665
cur table: 1906
Heartbeat CPU 0 instructions: 30000003 cycles: 8992365 heartbeat IPC: 3.33611 cumulative IPC: 3.33616 (Simulation time: 0 hr 11 min 51 sec) 
epoch: 1000
next table: 1742
cur table: 1665
epoch: 1000
next table: 2024
cur table: 1742
epoch: 1000
next table: 1985
cur table: 2024
epoch: 1000
next table: 1568
cur table: 1985
epoch: 1000
next table: 1850
cur table: 1568
epoch: 1000
next table: 3179
cur table: 1793
epoch: 1000
next table: 1729
cur table: 1850
epoch: 1000
next table: 1951
cur table: 1729
epoch: 1000
next table: 1317
cur table: 1951
epoch: 1000
next table: 1433
cur table: 1317
epoch: 1000
next table: 2456
cur table: 3179
epoch: 1000
next table: 1424
cur table: 1433
epoch: 1000
next table: 2202
cur table: 1424
epoch: 1000
next table: 1310
cur table: 2202
epoch: 1000
next table: 1649
cur table: 1310
epoch: 1000
next table: 2155
cur table: 2456
epoch: 1000
next table: 1749
cur table: 1649
epoch: 1000
next table: 1941
cur table: 1749
epoch: 1000
next table: 1529
cur table: 1941
epoch: 1000
next table: 2009
cur table: 1529
epoch: 1000
next table: 2140
cur table: 2155
epoch: 1000
next table: 1611
cur table: 2009
epoch: 1000
next table: 1951
cur table: 1611
epoch: 1000
next table: 1868
cur table: 1951
epoch: 1000
next table: 1724
cur table: 1868
epoch: 1000
next table: 2008
cur table: 1724
epoch: 1000
next table: 1434
cur table: 2008
epoch: 1000
next table: 2919
cur table: 2140
epoch: 1000
next table: 1280
cur table: 1434
epoch: 1000
next table: 1532
cur table: 1280
epoch: 1000
next table: 1816
cur table: 1532
epoch: 1000
next table: 1622
cur table: 1816
epoch: 1000
next table: 2377
cur table: 2919
epoch: 1000
next table: 1644
cur table: 1622
epoch: 1000
next table: 1427
cur table: 1644
epoch: 1000
next table: 1834
cur table: 1427
epoch: 1000
next table: 1826
cur table: 2377
epoch: 1000
next table: 1839
cur table: 1834
epoch: 1000
next table: 1711
cur table: 1839
epoch: 1000
next table: 1817
cur table: 1711
epoch: 1000
next table: 1713
cur table: 1817
epoch: 1000
next table: 1857
cur table: 1713
epoch: 1000
next table: 1900
cur table: 1857
epoch: 1000
next table: 3328
cur table: 1826
epoch: 1000
next table: 1714
cur table: 1900
epoch: 1000
next table: 1971
cur table: 1714
epoch: 1000
next table: 1431
cur table: 1971
epoch: 1000
next table: 1276
cur table: 1431
epoch: 1000
next table: 1567
cur table: 1276
epoch: 1000
next table: 2419
cur table: 3328
epoch: 1000
next table: 1997
cur table: 1567
epoch: 1000
next table: 1403
cur table: 1997
epoch: 1000
next table: 1715
cur table: 1403
epoch: 1000
next table: 1352
cur table: 1715
epoch: 1000
next table: 2133
cur table: 2419
epoch: 1000
next table: 1915
cur table: 1352
epoch: 1000
next table: 1739
cur table: 1915
epoch: 1000
next table: 1708
cur table: 1739
epoch: 1000
next table: 2069
cur table: 2133
epoch: 1000
next table: 1970
cur table: 1708
epoch: 1000
next table: 1910
cur table: 1970
epoch: 1000
next table: 1687
cur table: 1910
epoch: 1000
next table: 1871
cur table: 1687
epoch: 1000
next table: 1513
cur table: 1871
epoch: 1000
next table: 2115
cur table: 1513
epoch: 1000
next table: 2941
cur table: 2069
epoch: 1000
next table: 1321
cur table: 2115
epoch: 1000
next table: 1342
cur table: 1321
epoch: 1000
next table: 1542
cur table: 1342
epoch: 1000
next table: 2184
cur table: 1542
epoch: 1000
next table: 2391
cur table: 2941
epoch: 1000
next table: 1227
cur table: 2184
epoch: 1000
next table: 1784
cur table: 1227
epoch: 1000
next table: 1544
cur table: 1784
epoch: 1000
next table: 1831
cur table: 1544
epoch: 1000
next table: 2204
cur table: 2391
epoch: 1000
next table: 1612
cur table: 1831
epoch: 1000
next table: 1796
cur table: 1612
epoch: 1000
next table: 1860
cur table: 1796
epoch: 1000
next table: 1970
cur table: 1860
epoch: 1000
next table: 1536
cur table: 1970
epoch: 1000
next table: 1843
cur table: 1536
epoch: 1000
next table: 2912
cur table: 2204
epoch: 1000
next table: 1504
cur table: 1843
epoch: 1000
next table: 2113
cur table: 1504
epoch: 1000
next table: 1343
cur table: 2113
epoch: 1000
next table: 1352
cur table: 1343
epoch: 1000
next table: 1525
cur table: 1352
epoch: 1000
next table: 2191
cur table: 1525
epoch: 1000
next table: 2889
cur table: 2912
epoch: 1000
next table: 1213
cur table: 2191
epoch: 1000
next table: 1758
cur table: 1213
epoch: 1000
next table: 1652
cur table: 1758
epoch: 1000
next table: 1746
cur table: 2889
epoch: 1000
next table: 1960
cur table: 1652
epoch: 1000
next table: 1607
cur table: 1960
epoch: 1000
next table: 2013
cur table: 1607
epoch: 1000
next table: 1629
cur table: 2013
epoch: 1000
next table: 2655
cur table: 1746
epoch: 1000
next table: 1951
cur table: 1629
epoch: 1000
next table: 1917
cur table: 1951
epoch: 1000
next table: 1691
cur table: 1917
epoch: 1000
next table: 1994
cur table: 1691
epoch: 1000
next table: 1472
cur table: 1994
epoch: 1000
next table: 1276
cur table: 1472
epoch: 1000
next table: 1555
cur table: 1276
epoch: 1000
next table: 3077
cur table: 2655
epoch: 1000
next table: 1814
cur table: 1555
epoch: 1000
next table: 1613
cur table: 1814
epoch: 1000
next table: 1607
cur table: 1613
epoch: 1000
next table: 1971
cur table: 3077
epoch: 1000
next table: 1481
cur table: 1607
epoch: 1000
next table: 1882
cur table: 1481
epoch: 1000
next table: 1809
cur table: 1882
epoch: 1000
next table: 1740
cur table: 1809
epoch: 1000
next table: 2243
cur table: 1971
epoch: 1000
next table: 1934
cur table: 1740
epoch: 1000
next table: 1854
cur table: 1934
epoch: 1000
next table: 1493
cur table: 1854
epoch: 1000
next table: 2042
cur table: 1493
epoch: 1000
next table: 1602
cur table: 2042
epoch: 1000
next table: 1992
cur table: 1602
epoch: 1000
next table: 3100
cur table: 2243
epoch: 1000
next table: 1409
cur table: 1992
epoch: 1000
next table: 1268
cur table: 1409
epoch: 1000
next table: 1550
cur table: 1268
epoch: 1000
next table: 2005
cur table: 1550
epoch: 1000
next table: 1426
cur table: 2005
epoch: 1000
next table: 2385
cur table: 3100
epoch: 1000
next table: 1699
cur table: 1426
epoch: 1000
next table: 1418
cur table: 1699
epoch: 1000
next table: 1985
cur table: 1418
epoch: 1000
next table: 2147
cur table: 2385
epoch: 1000
next table: 1660
cur table: 1985
epoch: 1000
next table: 1748
cur table: 1660
epoch: 1000
next table: 1947
cur table: 1748
epoch: 1000
next table: 1910
cur table: 1947
epoch: 1000
next table: 1579
cur table: 1910
epoch: 1000
next table: 1905
cur table: 1579
epoch: 1000
next table: 2916
cur table: 2147
epoch: 1000
next table: 1554
cur table: 1905
epoch: 1000
next table: 2123
cur table: 1554
epoch: 1000
next table: 1333
cur table: 2123
epoch: 1000
next table: 1336
cur table: 1333
epoch: 1000
next table: 1557
cur table: 1336
epoch: 1000
next table: 2187
cur table: 1557
epoch: 1000
next table: 2933
cur table: 2916
epoch: 1000
next table: 1212
cur table: 2187
epoch: 1000
next table: 1690
cur table: 1212
epoch: 1000
next table: 1688
cur table: 1690
epoch: 1000
next table: 1783
cur table: 2933
epoch: 1000
next table: 1749
cur table: 1688
Heartbeat CPU 0 instructions: 40000003 cycles: 11989696 heartbeat IPC: 3.3363 cumulative IPC: 3.3362 (Simulation time: 0 hr 15 min 3 sec) 
epoch: 1000
next table: 1650
cur table: 1749
epoch: 1000
next table: 1782
cur table: 1650
epoch: 1000
next table: 1889
cur table: 1782
epoch: 1000
next table: 2707
cur table: 1783
epoch: 1000
next table: 1999
cur table: 1889
epoch: 1000
next table: 1661
cur table: 1999
epoch: 1000
next table: 1763
cur table: 1661
epoch: 1000
next table: 1724
cur table: 1763
epoch: 1000
next table: 1948
cur table: 1724
epoch: 1000
next table: 1324
cur table: 1948
epoch: 1000
next table: 1462
cur table: 1324
epoch: 1000
next table: 3196
cur table: 2707
epoch: 1000
next table: 1422
cur table: 1462
epoch: 1000
next table: 2123
cur table: 1422
epoch: 1000
next table: 1400
cur table: 2123
epoch: 1000
next table: 1616
cur table: 1400
epoch: 1000
next table: 1959
cur table: 3196
epoch: 1000
next table: 1711
cur table: 1616
epoch: 1000
next table: 2004
cur table: 1711
epoch: 1000
next table: 1517
cur table: 2004
epoch: 1000
next table: 2202
cur table: 1959
epoch: 1000
next table: 1961
cur table: 1517
epoch: 1000
next table: 1703
cur table: 1961
epoch: 1000
next table: 1855
cur table: 1703
epoch: 1000
next table: 1941
cur table: 1855
epoch: 1000
next table: 1691
cur table: 1941
epoch: 1000
next table: 1954
cur table: 1691
epoch: 1000
next table: 1443
cur table: 1954
epoch: 1000
next table: 3255
cur table: 2202
epoch: 1000
next table: 1269
cur table: 1443
epoch: 1000
next table: 1556
cur table: 1269
epoch: 1000
next table: 1926
cur table: 1556
epoch: 1000
next table: 1494
cur table: 1926
epoch: 1000
next table: 2569
cur table: 3255
epoch: 1000
next table: 1686
cur table: 1494
epoch: 1000
next table: 1515
cur table: 1686
epoch: 1000
next table: 1995
cur table: 1515
epoch: 1000
next table: 2095
cur table: 2569
epoch: 1000
next table: 1638
cur table: 1995
epoch: 1000
next table: 1715
cur table: 1638
epoch: 1000
next table: 1979
cur table: 1715
epoch: 1000
next table: 1803
cur table: 1979
epoch: 1000
next table: 1562
cur table: 1803
epoch: 1000
next table: 2024
cur table: 1562
epoch: 1000
next table: 1605
cur table: 2024
epoch: 1000
next table: 3270
cur table: 2095
epoch: 1000
next table: 2051
cur table: 1605
epoch: 1000
next table: 1328
cur table: 2051
epoch: 1000
next table: 1293
cur table: 1328
epoch: 1000
next table: 1593
cur table: 1293
epoch: 1000
next table: 2019
cur table: 1593
epoch: 1000
next table: 1433
cur table: 2019
epoch: 1000
next table: 2620
cur table: 3270
epoch: 1000
next table: 1658
cur table: 1433
epoch: 1000
next table: 1587
cur table: 1658
epoch: 1000
next table: 1715
cur table: 2620
epoch: 1000
next table: 1873
cur table: 1587
epoch: 1000
next table: 1576
cur table: 1873
epoch: 1000
next table: 1771
cur table: 1576
epoch: 1000
next table: 1922
cur table: 1771
epoch: 1000
next table: 1927
cur table: 1922
epoch: 1000
next table: 1575
cur table: 1927
epoch: 1000
next table: 3117
cur table: 1715
epoch: 1000
next table: 1981
cur table: 1575
epoch: 1000
next table: 1517
cur table: 1981
epoch: 1000
next table: 2030
cur table: 1517
epoch: 1000
next table: 1391
cur table: 2030
epoch: 1000
next table: 1338
cur table: 1391
epoch: 1000
next table: 1549
cur table: 1338
epoch: 1000
next table: 2200
cur table: 1549
epoch: 1000
next table: 3197
cur table: 3117
epoch: 1000
next table: 1220
cur table: 2200
epoch: 1000
next table: 1709
cur table: 1220
epoch: 1000
next table: 1583
cur table: 1709
epoch: 1000
next table: 1722
cur table: 3197
epoch: 1000
next table: 1906
cur table: 1583
epoch: 1000
next table: 1710
cur table: 1906
epoch: 1000
next table: 1654
cur table: 1710
epoch: 1000
next table: 1841
cur table: 1654
epoch: 1000
next table: 2381
cur table: 1722
epoch: 1000
next table: 1998
cur table: 1841
epoch: 1000
next table: 1553
cur table: 1998
epoch: 1000
next table: 1827
cur table: 1553
epoch: 1000
next table: 1574
cur table: 1827
epoch: 1000
next table: 2026
cur table: 1574
epoch: 1000
next table: 1374
cur table: 2026
epoch: 1000
next table: 1280
cur table: 1374
epoch: 1000
next table: 1612
cur table: 1280
epoch: 1000
next table: 3654
cur table: 2381
epoch: 1000
next table: 2079
cur table: 1612
epoch: 1000
next table: 1321
cur table: 2079
epoch: 1000
next table: 1776
cur table: 1321
epoch: 1000
next table: 1590
cur table: 1776
epoch: 1000
next table: 2104
cur table: 3654
epoch: 1000
next table: 1774
cur table: 1590
epoch: 1000
next table: 1637
cur table: 1774
epoch: 1000
next table: 1804
cur table: 1637
epoch: 1000
next table: 2227
cur table: 2104
epoch: 1000
next table: 1866
cur table: 1804
epoch: 1000
next table: 1984
cur table: 1866
epoch: 1000
next table: 1705
cur table: 1984
epoch: 1000
next table: 1728
cur table: 1705
epoch: 1000
next table: 1749
cur table: 1728
epoch: 1000
next table: 1915
cur table: 1749
epoch: 1000
next table: 1331
cur table: 1915
epoch: 1000
next table: 3273
cur table: 2227
epoch: 1000
next table: 1487
cur table: 1331
epoch: 1000
next table: 1390
cur table: 1487
epoch: 1000
next table: 2108
cur table: 1390
epoch: 1000
next table: 1510
cur table: 2108
epoch: 1000
next table: 2286
cur table: 3273
epoch: 1000
next table: 1569
cur table: 1510
epoch: 1000
next table: 1809
cur table: 1569
epoch: 1000
next table: 1851
cur table: 1809
epoch: 1000
next table: 1704
cur table: 1851
epoch: 1000
next table: 2267
cur table: 2286
epoch: 1000
next table: 1872
cur table: 1704
epoch: 1000
next table: 1614
cur table: 1872
epoch: 1000
next table: 1830
cur table: 1614
epoch: 1000
next table: 1978
cur table: 1830
epoch: 1000
next table: 1637
cur table: 1978
epoch: 1000
next table: 1992
cur table: 1637
epoch: 1000
next table: 1403
cur table: 1992
epoch: 1000
next table: 3264
cur table: 2267
epoch: 1000
next table: 1279
cur table: 1403
epoch: 1000
next table: 1586
cur table: 1279
epoch: 1000
next table: 2005
cur table: 1586
epoch: 1000
next table: 1446
cur table: 2005
epoch: 1000
next table: 2377
cur table: 3264
epoch: 1000
next table: 1687
cur table: 1446
epoch: 1000
next table: 1515
cur table: 1687
epoch: 1000
next table: 1902
cur table: 1515
epoch: 1000
next table: 1580
cur table: 1902
epoch: 1000
next table: 2344
cur table: 2377
epoch: 1000
next table: 1867
cur table: 1580
epoch: 1000
next table: 1915
cur table: 1867
epoch: 1000
next table: 1973
cur table: 1915
epoch: 1000
next table: 1543
cur table: 1973
epoch: 1000
next table: 1926
cur table: 1543
epoch: 1000
next table: 1943
cur table: 1926
epoch: 1000
next table: 1703
cur table: 1943
epoch: 1000
next table: 3308
cur table: 2344
epoch: 1000
next table: 1337
cur table: 1703
epoch: 1000
next table: 1506
cur table: 1337
epoch: 1000
next table: 1383
cur table: 1506
epoch: 1000
next table: 2113
cur table: 1383
epoch: 1000
next table: 2394
cur table: 3308
epoch: 1000
next table: 1566
cur table: 2113
epoch: 1000
next table: 1512
cur table: 1566
epoch: 1000
next table: 1820
cur table: 1512
Heartbeat CPU 0 instructions: 50000000 cycles: 14989249 heartbeat IPC: 3.33383 cumulative IPC: 3.33572 (Simulation time: 0 hr 18 min 16 sec) 

Warmup complete CPU 0 instructions: 50000004 cycles: 14989250 (Simulation time: 0 hr 18 min 16 sec) 

epoch: 1000
next table: 2018
cur table: 1498
epoch: 1000
next table: 1678
cur table: 2018
epoch: 1000
next table: 1814
cur table: 1678
epoch: 1000
next table: 1790
cur table: 1814
epoch: 1000
next table: 1659
cur table: 1790
epoch: 1000
next table: 1709
cur table: 1659
epoch: 1000
next table: 1897
cur table: 1709
epoch: 1000
next table: 1303
cur table: 1897
epoch: 1000
next table: 1954
cur table: 1303
epoch: 1000
next table: 2490
cur table: 2718
epoch: 1000
next table: 1580
cur table: 1954
epoch: 1000
next table: 1997
cur table: 1580
epoch: 1000
next table: 1493
cur table: 1997
epoch: 1000
next table: 1692
cur table: 1493
epoch: 1000
next table: 2019
cur table: 2490
epoch: 1000
next table: 1624
cur table: 1692
epoch: 1000
next table: 1870
cur table: 1624
epoch: 1000
next table: 1573
cur table: 1870
epoch: 1000
next table: 2270
cur table: 2019
epoch: 1000
next table: 1729
cur table: 1573
epoch: 1000
next table: 1941
cur table: 1729
epoch: 1000
next table: 1818
cur table: 1941
epoch: 1000
next table: 1511
cur table: 1818
epoch: 1000
next table: 1941
cur table: 1511
epoch: 1000
next table: 1672
cur table: 1941
epoch: 1000
next table: 1970
cur table: 1672
epoch: 1000
next table: 1493
cur table: 1970
epoch: 1000
next table: 3341
cur table: 2270
epoch: 1000
next table: 1203
cur table: 1493
epoch: 1000
next table: 1468
cur table: 1203
epoch: 1000
next table: 1535
cur table: 1468
epoch: 1000
next table: 2071
cur table: 1535
epoch: 1000
next table: 1377
cur table: 2071
epoch: 1000
next table: 2506
cur table: 3341
epoch: 1000
next table: 1690
cur table: 1377
epoch: 1000
next table: 1608
cur table: 1690
epoch: 1000
next table: 1938
cur table: 1608
epoch: 1000
next table: 2191
cur table: 2506
epoch: 1000
next table: 1577
cur table: 1938
epoch: 1000
next table: 1864
cur table: 1577
epoch: 1000
next table: 1822
cur table: 1864
epoch: 1000
next table: 1876
cur table: 1822
epoch: 1000
next table: 1448
cur table: 1876
epoch: 1000
next table: 1936
cur table: 1448
epoch: 1000
next table: 1724
cur table: 1936
epoch: 1000
next table: 1963
cur table: 1724
epoch: 1000
next table: 3545
cur table: 2191
epoch: 1000
next table: 1445
cur table: 1963
epoch: 1000
next table: 1208
cur table: 1445
epoch: 1000
next table: 1224
cur table: 1208
epoch: 1000
next table: 1543
cur table: 1224
epoch: 1000
next table: 1973
cur table: 1543
epoch: 1000
next table: 1445
cur table: 1973
epoch: 1000
next table: 2437
cur table: 3545
epoch: 1000
next table: 1665
cur table: 1445
epoch: 1000
next table: 1551
cur table: 1665
epoch: 1000
next table: 1919
cur table: 1551
epoch: 1000
next table: 2138
cur table: 2437
epoch: 1000
next table: 1588
cur table: 1919
epoch: 1000
next table: 1714
cur table: 1588
epoch: 1000
next table: 1951
cur table: 1714
epoch: 1000
next table: 1870
cur table: 1951
epoch: 1000
next table: 1443
cur table: 1870
epoch: 1000
next table: 1975
cur table: 1443
epoch: 1000
next table: 1718
cur table: 1975
epoch: 1000
next table: 3013
cur table: 2138
epoch: 1000
next table: 1973
cur table: 1718
epoch: 1000
next table: 1446
cur table: 1973
epoch: 1000
next table: 1187
cur table: 1446
epoch: 1000
next table: 1218
cur table: 1187
epoch: 1000
next table: 1546
cur table: 1218
epoch: 1000
next table: 2059
cur table: 1546
epoch: 1000
next table: 1343
cur table: 2059
epoch: 1000
next table: 2997
cur table: 3013
epoch: 1000
next table: 1696
cur table: 1343
epoch: 1000
next table: 1445
cur table: 1696
epoch: 1000
next table: 1756
cur table: 2997
epoch: 1000
next table: 1959
cur table: 1445
epoch: 1000
next table: 1686
cur table: 1959
epoch: 1000
next table: 1727
cur table: 1686
epoch: 1000
next table: 1856
cur table: 1727
epoch: 1000
next table: 1865
cur table: 1856
epoch: 1000
next table: 1561
cur table: 1865
epoch: 1000
next table: 2036
cur table: 1561
epoch: 1000
next table: 3420
cur table: 1756
epoch: 1000
next table: 1699
cur table: 2036
epoch: 1000
next table: 1938
cur table: 1699
epoch: 1000
next table: 1482
cur table: 1938
epoch: 1000
next table: 1171
cur table: 1482
epoch: 1000
next table: 1126
cur table: 1171
epoch: 1000
next table: 1588
cur table: 1126
epoch: 1000
next table: 2029
cur table: 1588
epoch: 1000
next table: 2932
cur table: 3420
epoch: 1000
next table: 1542
cur table: 2029
epoch: 1000
next table: 1686
cur table: 1542
epoch: 1000
next table: 1568
cur table: 1686
epoch: 1000
next table: 1784
cur table: 2932
epoch: 1000
next table: 1888
cur table: 1568
epoch: 1000
next table: 1600
cur table: 1888
epoch: 1000
next table: 1809
cur table: 1600
epoch: 1000
next table: 1984
cur table: 1809
epoch: 1000
next table: 1992
cur table: 1984
epoch: 1000
next table: 1286
cur table: 1992
epoch: 1000
next table: 2054
cur table: 1286
epoch: 1000
next table: 3219
cur table: 1784
epoch: 1000
next table: 1607
cur table: 2054
epoch: 1000
next table: 1980
cur table: 1607
epoch: 1000
next table: 1439
cur table: 1980
epoch: 1000
next table: 1178
cur table: 1439
epoch: 1000
next table: 1138
cur table: 1178
epoch: 1000
next table: 1608
cur table: 1138
epoch: 1000
next table: 2021
cur table: 1608
epoch: 1000
next table: 3158
cur table: 3219
epoch: 1000
next table: 1411
cur table: 2021
epoch: 1000
next table: 1715
cur table: 1411
epoch: 1000
next table: 1655
cur table: 1715
epoch: 1000
next table: 1846
cur table: 3158
epoch: 1000
next table: 1855
cur table: 1655
epoch: 1000
next table: 1562
cur table: 1855
epoch: 1000
next table: 1900
cur table: 1562
epoch: 1000
next table: 1861
cur table: 1900
epoch: 1000
next table: 1975
cur table: 1861
epoch: 1000
next table: 1379
cur table: 1975
epoch: 1000
next table: 1965
cur table: 1379
epoch: 1000
next table: 3431
cur table: 1846
epoch: 1000
next table: 1582
cur table: 1965
epoch: 1000
next table: 1982
cur table: 1582
epoch: 1000
next table: 1424
cur table: 1982
epoch: 1000
next table: 1180
cur table: 1424
epoch: 1000
next table: 1109
cur table: 1180
epoch: 1000
next table: 1571
cur table: 1109
epoch: 1000
next table: 1984
cur table: 1571
epoch: 1000
next table: 2970
cur table: 3431
epoch: 1000
next table: 1437
cur table: 1984
epoch: 1000
next table: 1752
cur table: 1437
epoch: 1000
next table: 1396
cur table: 1752
epoch: 1000
next table: 1692
cur table: 2970
epoch: 1000
next table: 1885
cur table: 1396
epoch: 1000
next table: 1843
cur table: 1885
epoch: 1000
next table: 1687
cur table: 1843
epoch: 1000
next table: 1808
cur table: 1687
epoch: 1000
next table: 1620
cur table: 1808
epoch: 1000
next table: 1799
cur table: 1620
epoch: 1000
next table: 1764
cur table: 1799
epoch: 1000
next table: 3256
cur table: 1692
epoch: 1000
next table: 1767
cur table: 1764
epoch: 1000
next table: 1688
cur table: 1767
epoch: 1000
next table: 1886
cur table: 1688
epoch: 1000
next table: 1245
cur table: 1886
epoch: 1000
next table: 1103
cur table: 1245
epoch: 1000
next table: 1448
cur table: 1103
epoch: 1000
next table: 1386
cur table: 1448
epoch: 1000
next table: 2123
cur table: 1386
epoch: 1000
next table: 3367
cur table: 3256
epoch: 1000
next table: 1511
cur table: 2123
epoch: 1000
next table: 1610
cur table: 1511
epoch: 1000
next table: 1785
cur table: 1610
epoch: 1000
next table: 1810
cur table: 3367
epoch: 1000
next table: 1956
cur table: 1785
Heartbeat CPU 0 instructions: 60000000 cycles: 27603104 heartbeat IPC: 0.792779 cumulative IPC: 0.792779 (Simulation time: 0 hr 21 min 5 sec) 
epoch: 1000
next table: 1451
cur table: 1956
epoch: 1000
next table: 2005
cur table: 1451
epoch: 1000
next table: 1647
cur table: 2005
epoch: 1000
next table: 1842
cur table: 1647
epoch: 1000
next table: 1891
cur table: 1842
epoch: 1000
next table: 3118
cur table: 1810
epoch: 1000
next table: 1653
cur table: 1891
epoch: 1000
next table: 1815
cur table: 1653
epoch: 1000
next table: 1746
cur table: 1815
epoch: 1000
next table: 1247
cur table: 1746
epoch: 1000
next table: 1114
cur table: 1247
epoch: 1000
next table: 1454
cur table: 1114
epoch: 1000
next table: 1379
cur table: 1454
epoch: 1000
next table: 2220
cur table: 1379
epoch: 1000
next table: 3327
cur table: 3118
epoch: 1000
next table: 1488
cur table: 2220
epoch: 1000
next table: 1617
cur table: 1488
epoch: 1000
next table: 1694
cur table: 1617
epoch: 1000
next table: 1768
cur table: 3327
epoch: 1000
next table: 2040
cur table: 1694
epoch: 1000
next table: 1475
cur table: 2040
epoch: 1000
next table: 2004
cur table: 1475
epoch: 1000
next table: 1604
cur table: 2004
epoch: 1000
next table: 1846
cur table: 1604
epoch: 1000
next table: 1795
cur table: 1846
epoch: 1000
next table: 3091
cur table: 1768
epoch: 1000
next table: 1691
cur table: 1795
epoch: 1000
next table: 1697
cur table: 1691
epoch: 1000
next table: 1900
cur table: 1697
epoch: 1000
next table: 1293
cur table: 1900
epoch: 1000
next table: 1109
cur table: 1293
epoch: 1000
next table: 1470
cur table: 1109
epoch: 1000
next table: 1369
cur table: 1470
epoch: 1000
next table: 3401
cur table: 3091
epoch: 1000
next table: 2128
cur table: 1369
epoch: 1000
next table: 1515
cur table: 2128
epoch: 1000
next table: 1557
cur table: 1515
epoch: 1000
next table: 1697
cur table: 3401
epoch: 1000
next table: 1763
cur table: 1557
epoch: 1000
next table: 1997
cur table: 1763
epoch: 1000
next table: 1521
cur table: 1997
epoch: 1000
next table: 1975
cur table: 1521
epoch: 1000
next table: 1659
cur table: 1975
epoch: 1000
next table: 1867
cur table: 1659
epoch: 1000
next table: 1495
cur table: 1867
epoch: 1000
next table: 3192
cur table: 1697
epoch: 1000
next table: 1884
cur table: 1495
epoch: 1000
next table: 1489
cur table: 1884
epoch: 1000
next table: 2084
cur table: 1489
epoch: 1000
next table: 1420
cur table: 2084
epoch: 1000
next table: 1113
cur table: 1420
epoch: 1000
next table: 1347
cur table: 1113
epoch: 1000
next table: 1407
cur table: 1347
epoch: 1000
next table: 2200
cur table: 1407
epoch: 1000
next table: 3443
cur table: 3192
epoch: 1000
next table: 1271
cur table: 2200
epoch: 1000
next table: 1740
cur table: 1271
epoch: 1000
next table: 1670
cur table: 1740
epoch: 1000
next table: 1782
cur table: 3443
epoch: 1000
next table: 1994
cur table: 1670
epoch: 1000
next table: 1607
cur table: 1994
epoch: 1000
next table: 1842
cur table: 1607
epoch: 1000
next table: 1622
cur table: 1842
epoch: 1000
next table: 1986
cur table: 1622
epoch: 1000
next table: 1377
cur table: 1986
epoch: 1000
next table: 1942
cur table: 1377
epoch: 1000
next table: 1599
cur table: 1942
epoch: 1000
next table: 1976
cur table: 1599
epoch: 1000
next table: 4198
cur table: 1782
epoch: 1000
next table: 1511
cur table: 1976
epoch: 1000
next table: 1133
cur table: 1511
epoch: 1000
next table: 1357
cur table: 1133
epoch: 1000
next table: 1379
cur table: 1357
epoch: 1000
next table: 2204
cur table: 1379
epoch: 1000
next table: 1286
cur table: 2204
epoch: 1000
next table: 2591
cur table: 4198
epoch: 1000
next table: 1667
cur table: 1286
epoch: 1000
next table: 1640
cur table: 1667
epoch: 1000
next table: 1894
cur table: 1640
epoch: 1000
next table: 1539
cur table: 1894
epoch: 1000
next table: 2430
cur table: 2591
epoch: 1000
next table: 1768
cur table: 1539
epoch: 1000
next table: 1993
cur table: 1768
epoch: 1000
next table: 1868
cur table: 1993
epoch: 1000
next table: 1389
cur table: 1868
epoch: 1000
next table: 2009
cur table: 1389
epoch: 1000
next table: 1642
cur table: 2009
epoch: 1000
next table: 1923
cur table: 1642
epoch: 1000
next table: 1518
cur table: 1923
epoch: 1000
next table: 1192
cur table: 1518
epoch: 1000
next table: 1374
cur table: 1192
epoch: 1000
next table: 1382
cur table: 1374
epoch: 1000
next table: 2196
cur table: 1382
epoch: 1000
next table: 4676
cur table: 2430
epoch: 1000
next table: 1353
cur table: 2196
epoch: 1000
next table: 1649
cur table: 1353
epoch: 1000
next table: 1722
cur table: 4676
epoch: 1000
next table: 1674
cur table: 1649
epoch: 1000
next table: 1994
cur table: 1674
epoch: 1000
next table: 1638
cur table: 1994
epoch: 1000
next table: 1649
cur table: 1638
epoch: 1000
next table: 1889
cur table: 1649
epoch: 1000
next table: 1986
cur table: 1889
epoch: 1000
next table: 1405
cur table: 1986
epoch: 1000
next table: 3220
cur table: 1722
epoch: 1000
next table: 1907
cur table: 1405
epoch: 1000
next table: 1600
cur table: 1907
epoch: 1000
next table: 1970
cur table: 1600
epoch: 1000
next table: 1539
cur table: 1970
epoch: 1000
next table: 1120
cur table: 1539
epoch: 1000
next table: 1408
cur table: 1120
epoch: 1000
next table: 1399
cur table: 1408
epoch: 1000
next table: 2161
cur table: 1399
epoch: 1000
next table: 3510
cur table: 3220
epoch: 1000
next table: 1479
cur table: 2161
epoch: 1000
next table: 1673
cur table: 1479
epoch: 1000
next table: 1732
cur table: 1673
epoch: 1000
next table: 2034
cur table: 1732
epoch: 1000
next table: 2197
cur table: 3510
epoch: 1000
next table: 1531
cur table: 2034
epoch: 1000
next table: 1941
cur table: 1531
epoch: 1000
next table: 1687
cur table: 1941
epoch: 1000
next table: 1823
cur table: 1687
epoch: 1000
next table: 1925
cur table: 1823
epoch: 1000
next table: 1660
cur table: 1925
epoch: 1000
next table: 1739
cur table: 1660
epoch: 1000
next table: 1811
cur table: 1739
epoch: 1000
next table: 1198
cur table: 1811
epoch: 1000
next table: 1225
cur table: 1198
epoch: 1000
next table: 1512
cur table: 1225
epoch: 1000
next table: 2181
cur table: 1512
epoch: 1000
next table: 4865
cur table: 2197
epoch: 1000
next table: 1274
cur table: 2181
epoch: 1000
next table: 1744
cur table: 1274
epoch: 1000
next table: 1635
cur table: 1744
epoch: 1000
next table: 1717
cur table: 4865
epoch: 1000
next table: 1917
cur table: 1635
epoch: 1000
next table: 1547
cur table: 1917
epoch: 1000
next table: 1832
cur table: 1547
epoch: 1000
next table: 1894
cur table: 1832
epoch: 1000
next table: 1975
cur table: 1894
epoch: 1000
next table: 1261
cur table: 1975
epoch: 1000
next table: 3143
cur table: 1717
epoch: 1000
next table: 2077
cur table: 1261
epoch: 1000
next table: 1586
cur table: 2077
epoch: 1000
next table: 2200
cur table: 1586
epoch: 1000
next table: 1296
cur table: 2200
epoch: 1000
next table: 1123
cur table: 1296
epoch: 1000
next table: 1507
cur table: 1123
epoch: 1000
next table: 1526
cur table: 1507
epoch: 1000
next table: 2161
cur table: 1526
epoch: 1000
next table: 1425
cur table: 2161
epoch: 1000
next table: 2164
cur table: 1425
epoch: 1000
next table: 4143
cur table: 3143
epoch: 1000
next table: 1482
cur table: 2164
Heartbeat CPU 0 instructions: 70000002 cycles: 40061579 heartbeat IPC: 0.802667 cumulative IPC: 0.797692 (Simulation time: 0 hr 23 min 45 sec) 
epoch: 1000
next table: 2076
cur table: 1482
epoch: 1000
next table: 1851
cur table: 2076
epoch: 1000
next table: 1554
cur table: 1851
epoch: 1000
next table: 2063
cur table: 1554
epoch: 1000
next table: 1915
cur table: 2063
epoch: 1000
next table: 1563
cur table: 1915
epoch: 1000
next table: 1165
cur table: 1563
epoch: 1000
next table: 1275
cur table: 1165
epoch: 1000
next table: 1471
cur table: 1275
epoch: 1000
next table: 4218
cur table: 4143
epoch: 1000
next table: 1806
cur table: 1471
epoch: 1000
next table: 1700
cur table: 4218
epoch: 1000
next table: 2951
cur table: 1806
epoch: 1000
next table: 1488
cur table: 1700
epoch: 1000
next table: 3561
cur table: 2951
epoch: 1000
next table: 1515
cur table: 1488
epoch: 1000
next table: 3538
cur table: 3561
epoch: 1000
next table: 1546
cur table: 1515
epoch: 1000
next table: 3291
cur table: 3538
epoch: 1000
next table: 1475
cur table: 1546
epoch: 1000
next table: 3581
cur table: 3291
epoch: 1000
next table: 1543
cur table: 1475
epoch: 1000
next table: 3274
cur table: 3581
epoch: 1000
next table: 3546
cur table: 3274
epoch: 1000
next table: 1503
cur table: 1543
epoch: 1000
next table: 3564
cur table: 3546
epoch: 1000
next table: 1497
cur table: 1503
epoch: 1000
next table: 3299
cur table: 3564
epoch: 1000
next table: 1552
cur table: 1497
epoch: 1000
next table: 3571
cur table: 3299
epoch: 1000
next table: 1510
cur table: 1552
epoch: 1000
next table: 3249
cur table: 3571
epoch: 1000
next table: 1490
cur table: 1510
epoch: 1000
next table: 3608
cur table: 3249
epoch: 1000
next table: 1555
cur table: 1490
epoch: 1000
next table: 3291
cur table: 3608
epoch: 1000
next table: 1578
cur table: 1555
epoch: 1000
next table: 1352
cur table: 3291
epoch: 1000
next table: 1293
cur table: 1578
epoch: 1000
next table: 1459
cur table: 1352
epoch: 1000
next table: 1409
cur table: 1459
epoch: 1000
next table: 1391
cur table: 1293
epoch: 1000
next table: 1455
cur table: 1409
epoch: 1000
next table: 1400
cur table: 1391
epoch: 1000
next table: 1474
cur table: 1455
epoch: 1000
next table: 1476
cur table: 1474
epoch: 1000
next table: 1429
cur table: 1400
epoch: 1000
next table: 1401
cur table: 1476
epoch: 1000
next table: 1433
cur table: 1429
epoch: 1000
next table: 1490
cur table: 1401
epoch: 1000
next table: 1423
cur table: 1490
epoch: 1000
next table: 1455
cur table: 1433
epoch: 1000
next table: 1454
cur table: 1423
epoch: 1000
next table: 1456
cur table: 1454
epoch: 1000
next table: 1459
cur table: 1455
epoch: 1000
next table: 1510
cur table: 1456
epoch: 1000
next table: 1486
cur table: 1510
epoch: 1000
next table: 1458
cur table: 1459
epoch: 1000
next table: 1383
cur table: 1486
epoch: 1000
next table: 1029
cur table: 1383
epoch: 1000
next table: 1360
cur table: 1029
epoch: 1000
next table: 2020
cur table: 1458
epoch: 1000
next table: 2022
cur table: 1360
epoch: 1000
next table: 2105
cur table: 2020
epoch: 1000
next table: 2010
cur table: 2022
epoch: 1000
next table: 2095
cur table: 2105
epoch: 1000
next table: 1996
cur table: 2010
epoch: 1000
next table: 1496
cur table: 1996
epoch: 1000
next table: 1801
cur table: 2095
epoch: 1000
next table: 1452
cur table: 1496
epoch: 1000
next table: 1524
cur table: 1452
epoch: 1000
next table: 1469
cur table: 1801
epoch: 1000
next table: 1569
cur table: 1524
epoch: 1000
next table: 1403
cur table: 1569
epoch: 1000
next table: 1426
cur table: 1469
epoch: 1000
next table: 1595
cur table: 1403
epoch: 1000
next table: 1508
cur table: 1595
epoch: 1000
next table: 1447
cur table: 1426
epoch: 1000
next table: 1495
cur table: 1508
epoch: 1000
next table: 1590
cur table: 1495
epoch: 1000
next table: 1419
cur table: 1447
epoch: 1000
next table: 1432
cur table: 1590
epoch: 1000
next table: 1527
cur table: 1432
epoch: 1000
next table: 1417
cur table: 1419
epoch: 1000
next table: 1489
cur table: 1527
epoch: 1000
next table: 1518
cur table: 1489
epoch: 1000
next table: 1417
cur table: 1417
epoch: 1000
next table: 1566
cur table: 1518
epoch: 1000
next table: 1455
cur table: 1417
epoch: 1000
next table: 1430
cur table: 1566
Heartbeat CPU 0 instructions: 80000000 cycles: 52355813 heartbeat IPC: 0.813389 cumulative IPC: 0.802857 (Simulation time: 0 hr 25 min 58 sec) 
epoch: 1000
next table: 1554
cur table: 1430
epoch: 1000
next table: 1424
cur table: 1455
epoch: 1000
next table: 1403
cur table: 1554
epoch: 1000
next table: 1580
cur table: 1403
epoch: 1000
next table: 1404
cur table: 1424
epoch: 1000
next table: 1471
cur table: 1580
epoch: 1000
next table: 1512
cur table: 1471
epoch: 1000
next table: 1417
cur table: 1404
epoch: 1000
next table: 1545
cur table: 1512
epoch: 1000
next table: 1450
cur table: 1545
epoch: 1000
next table: 1397
cur table: 1417
epoch: 1000
next table: 1571
cur table: 1450
epoch: 1000
next table: 1436
cur table: 1571
epoch: 1000
next table: 1396
cur table: 1397
epoch: 1000
next table: 1609
cur table: 1436
epoch: 1000
next table: 1471
cur table: 1609
epoch: 1000
next table: 1404
cur table: 1396
epoch: 1000
next table: 1522
cur table: 1471
epoch: 1000
next table: 1467
cur table: 1522
epoch: 1000
next table: 1349
cur table: 1404
epoch: 1000
next table: 1499
cur table: 1467
epoch: 1000
next table: 1379
cur table: 1349
epoch: 1000
next table: 1545
cur table: 1499
epoch: 1000
next table: 1417
cur table: 1545
epoch: 1000
next table: 1357
cur table: 1379
epoch: 1000
next table: 1558
cur table: 1417
epoch: 1000
next table: 1446
cur table: 1558
epoch: 1000
next table: 1377
cur table: 1357
epoch: 1000
next table: 1519
cur table: 1446
epoch: 1000
next table: 1467
cur table: 1519
epoch: 1000
next table: 1367
cur table: 1377
epoch: 1000
next table: 1447
cur table: 1467
epoch: 1000
next table: 1535
cur table: 1447
epoch: 1000
next table: 1345
cur table: 1367
epoch: 1000
next table: 1479
cur table: 1535
epoch: 1000
next table: 1602
cur table: 1345
epoch: 1000
next table: 1672
cur table: 1479
epoch: 1000
next table: 2138
cur table: 1672
epoch: 1000
next table: 1828
cur table: 1602
epoch: 1000
next table: 3757
cur table: 2138
epoch: 1000
next table: 4686
cur table: 3757
epoch: 1000
next table: 4705
cur table: 4686
epoch: 1000
next table: 1253
cur table: 1828
epoch: 1000
next table: 4726
cur table: 4705
epoch: 1000
next table: 4803
cur table: 4726
epoch: 1000
next table: 5357
cur table: 4803
epoch: 1000
next table: 1185
cur table: 1253
epoch: 1000
next table: 4934
cur table: 5357
epoch: 1000
next table: 4704
cur table: 4934
epoch: 1000
next table: 5551
cur table: 4704
epoch: 1000
next table: 4756
cur table: 5551
epoch: 1000
next table: 1185
cur table: 1185
epoch: 1000
next table: 4802
cur table: 4756
epoch: 1000
next table: 5302
cur table: 4802
epoch: 1000
next table: 1179
cur table: 1185
epoch: 1000
next table: 4674
cur table: 5302
epoch: 1000
next table: 4645
cur table: 4674
Heartbeat CPU 0 instructions: 90000003 cycles: 66508076 heartbeat IPC: 0.706601 cumulative IPC: 0.776415 (Simulation time: 0 hr 28 min 11 sec) 
epoch: 1000
next table: 1866
cur table: 4645
epoch: 1000
next table: 1632
cur table: 1179
epoch: 1000
next table: 1586
cur table: 1866
epoch: 1000
next table: 1472
cur table: 1632
epoch: 1000
next table: 2003
cur table: 1586
epoch: 1000
next table: 1942
cur table: 2003
epoch: 1000
next table: 1514
cur table: 1472
epoch: 1000
next table: 2445
cur table: 1942
epoch: 1000
next table: 1841
cur table: 2445
epoch: 1000
next table: 1961
cur table: 1841
epoch: 1000
next table: 1238
cur table: 1514
epoch: 1000
next table: 2227
cur table: 1961
epoch: 1000
next table: 2153
cur table: 2227
epoch: 1000
next table: 2410
cur table: 2153
epoch: 1000
next table: 1244
cur table: 1238
epoch: 1000
next table: 2903
cur table: 2410
epoch: 1000
next table: 3383
cur table: 2903
epoch: 1000
next table: 1260
cur table: 1244
epoch: 1000
next table: 3508
cur table: 3383
epoch: 1000
next table: 3383
cur table: 3508
epoch: 1000
next table: 3904
cur table: 3383
epoch: 1000
next table: 1244
cur table: 1260
epoch: 1000
next table: 3601
cur table: 3904
epoch: 1000
next table: 4298
cur table: 3601
epoch: 1000
next table: 1265
cur table: 1244
epoch: 1000
next table: 3670
cur table: 4298
epoch: 1000
next table: 4181
cur table: 3670
epoch: 1000
next table: 1282
cur table: 1265
epoch: 1000
next table: 3778
cur table: 4181
epoch: 1000
next table: 4288
cur table: 3778
epoch: 1000
next table: 1184
cur table: 1282
epoch: 1000
next table: 4382
cur table: 4288
epoch: 1000
next table: 4388
cur table: 4382
epoch: 1000
next table: 3637
cur table: 4388
epoch: 1000
next table: 1253
cur table: 1184
epoch: 1000
next table: 3652
cur table: 3637
epoch: 1000
next table: 3171
cur table: 3652
epoch: 1000
next table: 1653
cur table: 1253
epoch: 1000
next table: 2012
cur table: 3171
epoch: 1000
next table: 2730
cur table: 2012
epoch: 1000
next table: 1969
cur table: 1653
epoch: 1000
next table: 3309
cur table: 2730
epoch: 1000
next table: 2035
cur table: 1969
epoch: 1000
next table: 3326
cur table: 3309
epoch: 1000
next table: 2001
cur table: 2035
epoch: 1000
next table: 3626
cur table: 3326
epoch: 1000
next table: 2051
cur table: 2001
epoch: 1000
next table: 3589
cur table: 3626
epoch: 1000
next table: 1999
cur table: 2051
epoch: 1000
next table: 3349
cur table: 3589
epoch: 1000
next table: 2009
cur table: 1999
epoch: 1000
next table: 3320
cur table: 3349
epoch: 1000
next table: 2007
cur table: 2009
epoch: 1000
next table: 3612
cur table: 3320
epoch: 1000
next table: 2094
cur table: 2007
epoch: 1000
next table: 3347
cur table: 3612
epoch: 1000
next table: 2055
cur table: 2094
epoch: 1000
next table: 3583
cur table: 3347
epoch: 1000
next table: 2096
cur table: 2055
epoch: 1000
next table: 3341
cur table: 3583
epoch: 1000
next table: 2052
cur table: 2096
epoch: 1000
next table: 3617
cur table: 3341
epoch: 1000
next table: 2064
cur table: 2052
epoch: 1000
next table: 3644
cur table: 3617
epoch: 1000
next table: 3307
cur table: 3644
epoch: 1000
next table: 2120
cur table: 2064
epoch: 1000
next table: 1520
cur table: 3307
epoch: 1000
next table: 2000
cur table: 1520
epoch: 1000
next table: 3070
cur table: 2000
epoch: 1000
next table: 1334
cur table: 3070
epoch: 1000
next table: 3394
cur table: 2120
epoch: 1000
next table: 1354
cur table: 1334
epoch: 1000
next table: 1321
cur table: 3394
epoch: 1000
next table: 1337
cur table: 1354
epoch: 1000
next table: 1407
cur table: 1337
epoch: 1000
next table: 1342
cur table: 1321
epoch: 1000
next table: 1357
cur table: 1407
epoch: 1000
next table: 1296
cur table: 1342
epoch: 1000
next table: 1320
cur table: 1357
epoch: 1000
next table: 1374
cur table: 1320
epoch: 1000
next table: 1342
cur table: 1296
epoch: 1000
next table: 1373
cur table: 1374
epoch: 1000
next table: 1302
cur table: 1342
epoch: 1000
next table: 1314
cur table: 1373
epoch: 1000
next table: 1386
cur table: 1314
epoch: 1000
next table: 1332
cur table: 1302
epoch: 1000
next table: 1387
cur table: 1386
epoch: 1000
next table: 1288
cur table: 1332
epoch: 1000
next table: 1355
cur table: 1387
epoch: 1000
next table: 1411
cur table: 1355
epoch: 1000
next table: 1287
cur table: 1288
epoch: 1000
next table: 1392
cur table: 1411
epoch: 1000
next table: 1288
cur table: 1287
epoch: 1000
next table: 1358
cur table: 1392
Heartbeat CPU 0 instructions: 100000001 cycles: 78816677 heartbeat IPC: 0.81244 cumulative IPC: 0.783362 (Simulation time: 0 hr 31 min 30 sec) 
Finished CPU 0 instructions: 50000001 cycles: 63827433 cumulative IPC: 0.783362 (Simulation time: 0 hr 31 min 30 sec) 

ChampSim completed all CPUs

Region of Interest Statistics

CPU 0 cumulative IPC: 0.783362 instructions: 50000001 cycles: 63827433
ITLB TOTAL     ACCESS:    8485595  HIT:    8484537  MISS:       1058  HIT %:    99.9875  MISS %:  0.0124682   MPKI: 0.02116
ITLB LOAD TRANSLATION ACCESS:    8485595  HIT:    8484537  MISS:       1058  HIT %:    99.9875  MISS %:  0.0124682   MPKI: 0.02116
ITLB PREFETCH  REQUESTED:          0  ISSUED:          0  USEFUL:          0  USELESS:          0
ITLB USEFUL LOAD PREFETCHES:          0 PREFETCH ISSUED TO LOWER LEVEL:          0  ACCURACY: -nan
ITLB TIMELY PREFETCHES:          0 LATE PREFETCHES: 0 DROPPED PREFETCHES: 0
ITLB PREFETCHES SAME FILL-ORIGIN LEVEL: 0 DIFFERENT FILL-ORIGIN LEVEL: 0
ITLB AVERAGE MISS LATENCY: 15.1985 cycles
ITLB RQ	ACCESS:    9646946	FORWARD:          0	MERGED:    1161040	TO_CACHE:    8485906

Revised Interactions: positive negative neutral
ITLB_interactions 0 0 0 -nan -nan -nan
DTLB TOTAL     ACCESS:   10666815  HIT:   10639054  MISS:      27761  HIT %:    99.7397  MISS %:   0.260256   MPKI: 0.55522
DTLB LOAD TRANSLATION ACCESS:   10666815  HIT:   10639054  MISS:      27761  HIT %:    99.7397  MISS %:   0.260256   MPKI: 0.55522
DTLB PREFETCH  REQUESTED:          0  ISSUED:          0  USEFUL:          0  USELESS:          0
DTLB USEFUL LOAD PREFETCHES:          0 PREFETCH ISSUED TO LOWER LEVEL:          0  ACCURACY: -nan
DTLB TIMELY PREFETCHES:          0 LATE PREFETCHES: 0 DROPPED PREFETCHES: 0
DTLB PREFETCHES SAME FILL-ORIGIN LEVEL: 0 DIFFERENT FILL-ORIGIN LEVEL: 0
DTLB AVERAGE MISS LATENCY: 24.4337 cycles
DTLB RQ	ACCESS:   11504382	FORWARD:          0	MERGED:     831417	TO_CACHE:   10672965

Revised Interactions: positive negative neutral
DTLB_interactions 0 0 0 -nan -nan -nan
STLB TOTAL     ACCESS:    1273699  HIT:    1271479  MISS:       2220  HIT %:    99.8257  MISS %:   0.174295   MPKI: 0.0444
STLB LOAD TRANSLATION ACCESS:      28819  HIT:      26599  MISS:       2220  HIT %:    92.2967  MISS %:    7.70325   MPKI: 0.0444
STLB TRANSLATION FROM L1D PREFETCHER ACCESS:    1244880  HIT:    1244880  MISS:          0  HIT %:        100  MISS %:          0   MPKI: 0
STLB PREFETCH  REQUESTED:          0  ISSUED:          0  USEFUL:          0  USELESS:          0
STLB USEFUL LOAD PREFETCHES:          0 PREFETCH ISSUED TO LOWER LEVEL:          0  ACCURACY: -nan
STLB TIMELY PREFETCHES:          0 LATE PREFETCHES: 0 DROPPED PREFETCHES: 0
STLB PREFETCHES SAME FILL-ORIGIN LEVEL: 0 DIFFERENT FILL-ORIGIN LEVEL: 0
STLB AVERAGE MISS LATENCY: 193.452 cycles
STLB RQ	ACCESS:    3174526	FORWARD:          0	MERGED:    1900827	TO_CACHE:    1273699

Revised Interactions: positive negative neutral
STLB_interactions 0 0 0 -nan -nan -nan
STLB Hit, L1D data hit: 0
STLB Hit, L2C data hit: 0
STLB Hit, LLC data hit: 0
STLB Hit, LLC data miss: 0
STLB STLB hints to L2: 0
L1D TOTAL     ACCESS:   14136569  HIT:   13098649  MISS:    1037920  HIT %:    92.6579  MISS %:    7.34209   MPKI: 20.7584
L1D LOAD      ACCESS:    7822456  HIT:    7743469  MISS:      78987  HIT %:    98.9903  MISS %:    1.00975   MPKI: 1.57974
L1D RFO       ACCESS:    3170898  HIT:    2879178  MISS:     291720  HIT %:    90.8001  MISS %:    9.19992   MPKI: 5.8344
L1D PREFETCH  ACCESS:    3143215  HIT:    2476002  MISS:     667213  HIT %:    78.7729  MISS %:    21.2271   MPKI: 13.3443
L1D PREFETCH  REQUESTED:    6598245  ISSUED:    6291477  USEFUL:     481798  USELESS:     185404
L1D USEFUL LOAD PREFETCHES:     481798 PREFETCH ISSUED TO LOWER LEVEL:     695671  ACCURACY: 69.2566
L1D TIMELY PREFETCHES:     481798 LATE PREFETCHES: 7660 DROPPED PREFETCHES: 0
L1D PREFETCHES SAME FILL-ORIGIN LEVEL: 695671 DIFFERENT FILL-ORIGIN LEVEL: 0
L1D AVERAGE MISS LATENCY: 10915.2 cycles
L1D RQ	ACCESS:   10675578	FORWARD:          0	MERGED:    2804144	TO_CACHE:    7843817
L1D WQ	ACCESS:    3740433	FORWARD:      27642	MERGED:      79868	TO_CACHE:    3660565
L1D PQ	ACCESS:    3145770	FORWARD:          0	MERGED:         38	TO_CACHE:    3145707

Revised Interactions: positive negative neutral
L1D_interactions 0 0 0 -nan -nan -nan
L1D UNIQUE REGIONS ACCESSED: 0
L1D REGIONS CONFLICTS: 0
L1D Cross Page Prefetch Requests: 0
L1D Same Page Prefetch Requests: 7669997
L1D ROI Sum of L1D PQ occupancy: 45296922
L1D PREFETCHES PUSHED FROM L2C: 0
L1I TOTAL     ACCESS:    9637529  HIT:    9612731  MISS:      24798  HIT %:    99.7427  MISS %:   0.257307   MPKI: 0.49596
L1I LOAD      ACCESS:    9637529  HIT:    9612731  MISS:      24798  HIT %:    99.7427  MISS %:   0.257307   MPKI: 0.49596
L1I PREFETCH  REQUESTED:          0  ISSUED:          0  USEFUL:          0  USELESS:          0
L1I USEFUL LOAD PREFETCHES:          0 PREFETCH ISSUED TO LOWER LEVEL:          0  ACCURACY: -nan
L1I TIMELY PREFETCHES:          0 LATE PREFETCHES: 0 DROPPED PREFETCHES: 0
L1I PREFETCHES SAME FILL-ORIGIN LEVEL: 0 DIFFERENT FILL-ORIGIN LEVEL: 0
L1I AVERAGE MISS LATENCY: 55.2567 cycles
L1I RQ	ACCESS:   14409896	FORWARD:          0	MERGED:    4762950	TO_CACHE:    9646946

Revised Interactions: positive negative neutral
L1I_interactions 0 0 0 -nan -nan -nan
BTB TOTAL     ACCESS:    5842895  HIT:    5825323  MISS:      17572  HIT %:    99.6993  MISS %:   0.300741   MPKI: 0.35144
BTB BRANCH_DIRECT_JUMP	ACCESS:     214980  HIT:     214813  MISS:        167
BTB BRANCH_INDIRECT	ACCESS:       2007  HIT:       1748  MISS:        259
BTB BRANCH_CONDITIONAL	ACCESS:    5423620  HIT:    5422347  MISS:       1273
BTB BRANCH_DIRECT_CALL	ACCESS:     101143  HIT:     100534  MISS:        609
BTB BRANCH_INDIRECT_CALL	ACCESS:          0  HIT:          0  MISS:          0
BTB BRANCH_RETURN	ACCESS:     101145  HIT:      85881  MISS:      15264
BTB BRANCH_OTHER ACCESS:          0  HIT:          0  MISS:          0

L2C TOTAL     ACCESS:    3711067  HIT:    3256269  MISS:     454798  HIT %:    87.7448  MISS %:    12.2552   MPKI: 9.09596
L2C LOAD      ACCESS:     103784  HIT:      59635  MISS:      44149  HIT %:    57.4607  MISS %:    42.5393   MPKI: 0.88298
L2C DATA LOAD MPKI: 0.3901
L2C INSTRUCTION LOAD MPKI: 0.49288
L2C RFO       ACCESS:     291375  HIT:     202253  MISS:      89122  HIT %:    69.4133  MISS %:    30.5867   MPKI: 1.78244
L2C PREFETCH  ACCESS:    2923756  HIT:    2633074  MISS:     290682  HIT %:    90.0579  MISS %:    9.94207   MPKI: 5.81364
L2C DATA PREFETCH MPKI: 5.81364
L2C INSTRUCTION PREFETCH MPKI: 0
L2C WRITEBACK ACCESS:     389614  HIT:     360259  MISS:      29355  HIT %:    92.4656  MISS %:    7.53438   MPKI: 0.5871
L2C LOAD TRANSLATION ACCESS:       2538  HIT:       1048  MISS:       1490  HIT %:    41.2924  MISS %:    58.7076   MPKI: 0.0298
L2C PREFETCH  REQUESTED:    3165963  ISSUED:    3059725  USEFUL:      20714  USELESS:     268990
L2C USEFUL LOAD PREFETCHES:      20714 PREFETCH ISSUED TO LOWER LEVEL:     291286  ACCURACY: 7.11122
L2C TIMELY PREFETCHES:      20714 LATE PREFETCHES: 602 DROPPED PREFETCHES: 0
L2C PREFETCHES SAME FILL-ORIGIN LEVEL: 217670 DIFFERENT FILL-ORIGIN LEVEL: 0
L2C AVERAGE MISS LATENCY: 90.0437 cycles
L2C RQ	ACCESS:     397749	FORWARD:          0	MERGED:          0	TO_CACHE:     397697
L2C WQ	ACCESS:     389614	FORWARD:        165	MERGED:          0	TO_CACHE:     389614
L2C PQ	ACCESS:    3727232	FORWARD:          0	MERGED:     717977	TO_CACHE:    3009142

Revised Interactions: positive negative neutral
L2C_interactions 17305 279786 67249 4.74968 76.7926 18.4578
L2C Instructions Evicting Data 23075
L2C Translations Evicting Data 1382
L2C Data Evicting Data 375965
L2C Instructions Evicting Instructions 1515
L2C Translations Evicting Instructions 98
L2C Data Evicting Instructions 22085
L2C Instructions Evicting Translations 54
L2C Translations Evicting Translations 10
L2C Data Evicting Translations 1259
L2C Dense regions hint from L2: 0
PSCL5 TOTAL     ACCESS:       2220  HIT:       2220  MISS:          0  HIT %:        100  MISS %:          0   MPKI: 0
PSCL5 LOAD TRANSLATION ACCESS:       2220  HIT:       2220  MISS:          0  HIT %:        100  MISS %:          0   MPKI: 0
PSCL5 PREFETCH  REQUESTED:          0  ISSUED:          0  USEFUL:          0  USELESS:          0
PSCL5 USEFUL LOAD PREFETCHES:          0 PREFETCH ISSUED TO LOWER LEVEL:          0  ACCURACY: -nan
PSCL5 TIMELY PREFETCHES:          0 LATE PREFETCHES: 0 DROPPED PREFETCHES: 0
PSCL5 PREFETCHES SAME FILL-ORIGIN LEVEL: 0 DIFFERENT FILL-ORIGIN LEVEL: 0

Revised Interactions: positive negative neutral
PSCL5_interactions 0 0 0 -nan -nan -nan
PSCL4 TOTAL     ACCESS:       2220  HIT:       2220  MISS:          0  HIT %:        100  MISS %:          0   MPKI: 0
PSCL4 LOAD TRANSLATION ACCESS:       2220  HIT:       2220  MISS:          0  HIT %:        100  MISS %:          0   MPKI: 0
PSCL4 PREFETCH  REQUESTED:          0  ISSUED:          0  USEFUL:          0  USELESS:          0
PSCL4 USEFUL LOAD PREFETCHES:          0 PREFETCH ISSUED TO LOWER LEVEL:          0  ACCURACY: -nan
PSCL4 TIMELY PREFETCHES:          0 LATE PREFETCHES: 0 DROPPED PREFETCHES: 0
PSCL4 PREFETCHES SAME FILL-ORIGIN LEVEL: 0 DIFFERENT FILL-ORIGIN LEVEL: 0

Revised Interactions: positive negative neutral
PSCL4_interactions 0 0 0 -nan -nan -nan
PSCL3 TOTAL     ACCESS:       2220  HIT:       2220  MISS:          0  HIT %:        100  MISS %:          0   MPKI: 0
PSCL3 LOAD TRANSLATION ACCESS:       2220  HIT:       2220  MISS:          0  HIT %:        100  MISS %:          0   MPKI: 0
PSCL3 PREFETCH  REQUESTED:          0  ISSUED:          0  USEFUL:          0  USELESS:          0
PSCL3 USEFUL LOAD PREFETCHES:          0 PREFETCH ISSUED TO LOWER LEVEL:          0  ACCURACY: -nan
PSCL3 TIMELY PREFETCHES:          0 LATE PREFETCHES: 0 DROPPED PREFETCHES: 0
PSCL3 PREFETCHES SAME FILL-ORIGIN LEVEL: 0 DIFFERENT FILL-ORIGIN LEVEL: 0

Revised Interactions: positive negative neutral
PSCL3_interactions 0 0 0 -nan -nan -nan
PSCL2 TOTAL     ACCESS:       2220  HIT:       1881  MISS:        339  HIT %:    84.7297  MISS %:    15.2703   MPKI: 0.00678
PSCL2 LOAD TRANSLATION ACCESS:       2220  HIT:       1881  MISS:        339  HIT %:    84.7297  MISS %:    15.2703   MPKI: 0.00678
PSCL2 PREFETCH  REQUESTED:          0  ISSUED:          0  USEFUL:          0  USELESS:          0
PSCL2 USEFUL LOAD PREFETCHES:          0 PREFETCH ISSUED TO LOWER LEVEL:          0  ACCURACY: -nan
PSCL2 TIMELY PREFETCHES:          0 LATE PREFETCHES: 0 DROPPED PREFETCHES: 0
PSCL2 PREFETCHES SAME FILL-ORIGIN LEVEL: 0 DIFFERENT FILL-ORIGIN LEVEL: 0

Revised Interactions: positive negative neutral
PSCL2_interactions 0 0 0 -nan -nan -nan
LLC TOTAL     ACCESS:     578227  HIT:     373910  MISS:     204317  HIT %:    64.6649  MISS %:    35.3351   MPKI: 4.08634
LLC LOAD      ACCESS:      43557  HIT:      37746  MISS:       5811  HIT %:    86.6589  MISS %:    13.3411   MPKI: 0.11622
LLC RFO       ACCESS:      89111  HIT:      46847  MISS:      42264  HIT %:    52.5715  MISS %:    47.4285   MPKI: 0.84528
LLC PREFETCH  ACCESS:     291271  HIT:     162459  MISS:     128812  HIT %:    55.7759  MISS %:    44.2241   MPKI: 2.57624
LLC WRITEBACK ACCESS:     152798  HIT:     125888  MISS:      26910  HIT %:    82.3885  MISS %:    17.6115   MPKI: 0.5382
LLC LOAD TRANSLATION ACCESS:       1490  HIT:        970  MISS:        520  HIT %:    65.1007  MISS %:    34.8993   MPKI: 0.0104
LLC PREFETCH  REQUESTED:          0  ISSUED:          0  USEFUL:       2148  USELESS:      96976
LLC USEFUL LOAD PREFETCHES:       2148 PREFETCH ISSUED TO LOWER LEVEL:     128814  ACCURACY: 1.66752
LLC TIMELY PREFETCHES:       2148 LATE PREFETCHES: 0 DROPPED PREFETCHES: 0
LLC PREFETCHES SAME FILL-ORIGIN LEVEL: 0 DIFFERENT FILL-ORIGIN LEVEL: 0
LLC AVERAGE MISS LATENCY: 137.488 cycles
LLC RQ	ACCESS:     134159	FORWARD:          0	MERGED:          0	TO_CACHE:     134158
LLC WQ	ACCESS:     152799	FORWARD:         14	MERGED:          0	TO_CACHE:     152799
LLC PQ	ACCESS:     291286	FORWARD:          0	MERGED:          0	TO_CACHE:     291273

Revised Interactions: positive negative neutral
LLC_interactions 600 87322 25142 0.530673 77.2324 22.237
LLC Dense regions hint to LLC: 0

RAW hits: 115711
Loads Generated: 10791289
Loads sent to L1D: 10675578
Stores Generated: 3740422
Stores sent to L1D: 3740433
Major fault: 0 Minor fault: 5309
Allocated PAGES: 5309

stream: 
stream:times selected: 3324196
stream:pref_filled: 1505730
stream:pref_useful: 1152684
stream:pref_late: 5147
stream:misses: 5531
stream:misses_by_poll: 0

CS: 
CS:times selected: 2958559
CS:pref_filled: 17987
CS:pref_useful: 11375
CS:pref_late: 279
CS:misses: 54223
CS:misses_by_poll: 92

CPLX: 
CPLX:times selected: 364961
CPLX:pref_filled: 8063
CPLX:pref_useful: 3357
CPLX:pref_late: 63
CPLX:misses: 37209
CPLX:misses_by_poll: 4

NL_L1: 
NL:times selected: 671
NL:pref_filled: 107
NL:pref_useful: 46
NL:pref_late: 2
NL:misses: 144
NL:misses_by_poll: 0

total selections: 6648387
total_filled: 667213
total_useful: 481798
total_late: 5777
total_polluted: 96
total_misses_after_warmup: 100346
conflicts: 64107
Degree Incremented Times: 113467
Degree Decremented Times: 1797

L1 IP Table Write Accesses: 7758288
L1 IP Table Read Accesses: 7694181
L1 RST Write Accesses: 1506962
L1 RST Read Accesses: 3013924
L1 CSPT Write Accesses: 1506962
L1 CSPT Read Accesses: 1665852
L1 RR Filter Tag Write Accesses: 3452538
L1 RR Filter Tag Read Accesses: 332026692
L1 IP Table Tag Write Accesses: 7843815
L1 IP Table Tag Read Accesses: 7843815
L1 RST Tag Write Accesses: 0
L1 RST Tag Read Accesses: 14019983
L1 RR Filter Write Accesses: 0
L1 RR Filter Read Accesses: 12516032
test: 162093
L2 IP Table Read Accesses: 1197522
L2 IP Table Write Accesses: 1155356
L2 IP Table Tag Read Accesses: 612429
L2 IP Table Tag Write Accesses: 612429

DRAM Statistics
 CHANNEL 0
 RQ ROW_BUFFER_HIT:      80108  ROW_BUFFER_MISS:      97298
 DBUS_CONGESTED:        841
 WQ ROW_BUFFER_HIT:      15813  ROW_BUFFER_MISS:      45254  FULL:          0

 AVG_CONGESTED_CYCLE: 5
 All warmup complete: 2
Channel 0 Bank busy for read cycles: 0
Channel 0 Bank busy for write cycles: 0
Channel 0
Rank 0
0banks busy for read cycles: 51578713
0banks busy for write cycles: 8530
1banks busy for read cycles: 4560393
1banks busy for write cycles: 1163577
2banks busy for read cycles: 2320548
2banks busy for write cycles: 486629
3banks busy for read cycles: 788082
3banks busy for write cycles: 315852
4banks busy for read cycles: 343258
4banks busy for write cycles: 231929
5banks busy for read cycles: 185722
5banks busy for write cycles: 200848
6banks busy for read cycles: 174972
6banks busy for write cycles: 183572
7banks busy for read cycles: 259993
7banks busy for write cycles: 213802
8banks busy for read cycles: 242490
8banks busy for write cycles: 568524

CPU 0 Branch Prediction Accuracy: 97.2621% MPKI: 3.31844 Average ROB Occupancy at Mispredict: 27.5772
Branch types
NOT_BRANCH: 43939671 87.8793%
BRANCH_DIRECT_JUMP: 214980 0.42996%
BRANCH_INDIRECT: 2007 0.004014%
BRANCH_CONDITIONAL: 5640879 11.2818%
BRANCH_DIRECT_CALL: 101143 0.202286%
BRANCH_INDIRECT_CALL: 0 0%
BRANCH_RETURN: 101145 0.20229%
BRANCH_OTHER: 0 0%

@sumon_overall_L1D    481798      7660      7660    185404    667213   6291477   6598245
@Sumon_Early_by_class_L1D    472481      5435      1774         2
@Sumon_Late_by_class_L1D      3020        58        15         2

@Sumon_Early_by_cycle_L1D     17913     65415    139541     51177     51570    125299     13205      4231      4035      5082      3598       732
@Sumon_Late_by_cycle_L1D       951       795       265       522       750         9
@Sumon_Early_stream_L1D     16527     62144    138051     50385     51144    124341     12698      4053      3815      5026      3567       730
@Sumon_Early_CS_L1D       555      2340       764       431       154       500       329       142       164        29        25         2
@Sumon_Early_CPLX_L1D       210        31       330       220       268       439       178        31        46        17         4         0
@Sumon_Late_stream_L1D       852       714       228       488       729         9
@Sumon_Late_CS_L1D         7        37        12         1         1         0
@Sumon_Late_CPLX_L1D         4         8         0         2         1         0
@sumon_overall_L2C     20714       602         0    268990    290682   3059725   3165963
@Sumon_Early_by_class_L2C     18371       166        17         0
@Sumon_Late_by_class_L2C       114         0         0         0

@Sumon_Early_by_cycle_L2C       757       742       634       336       160       624       188       100       403       269      3324     13177
@Sumon_Late_by_cycle_L2C        92       164        93        46       207         0
@Sumon_Early_stream_L2C       182       300       255       128        98       560       165        91       339       221      3149     12883
@Sumon_Early_CS_L2C         0         0         0         0         0         0         0         0        31         2        45        88
@Sumon_Early_CPLX_L2C         0         0         0         0         0         0         0         0         1         1         4        11
@Sumon_Late_stream_L2C         0        44        21         9        40         0
@Sumon_Late_CS_L2C         0         0         0         0         0         0
@Sumon_Late_CPLX_L2C         0         0         0         0         0         0
DRAM PAGES: 1048576
Allocated PAGES: 5309
