
*** ChampSim Multicore Out-of-Order Simulator ***

Warmup Instructions: 50000000
Simulation Instructions: 50000000
Number of CPUs: 1
LLC sets: 2048
LLC ways: 16
Off-chip DRAM Size: 4096 MB Channels: 1 Width: 64-bit Data Rate: 6400 MT/s
CPU 0 runs ../../biswa/SPEC2017Traces/649.fotonik3d_s-1176B.champsimtrace.xz
.xz
CPU 0 Bimodal branch predictor
BTB has LRU replacement policy
ITLB has LRU replacement policy
DTLB has LRU replacement policy
STLB has LRU replacement policy
L1I has LRU replacement policy
IP Table Entries: 256
L1D has LRU replacement policy
IP_Table L2 entries: 256
Initialize DRRIP state for L2C
epoch: 1000
next table: 1038
cur table: 1525
epoch: 1000
next table: 1046
cur table: 1038
epoch: 1000
next table: 1038
cur table: 1046
epoch: 1000
next table: 1072
cur table: 1038
epoch: 1000
next table: 1038
cur table: 1072
epoch: 1000
next table: 1046
cur table: 1038
epoch: 1000
next table: 1083
cur table: 1046
epoch: 1000
next table: 1074
cur table: 1083
epoch: 1000
next table: 1040
cur table: 1074
epoch: 1000
next table: 1044
cur table: 1040
epoch: 1000
next table: 1040
cur table: 1044
epoch: 1000
next table: 1073
cur table: 1040
epoch: 1000
next table: 1040
cur table: 1073
epoch: 1000
next table: 1044
cur table: 1040
epoch: 1000
next table: 1080
cur table: 1044
epoch: 1000
next table: 1073
cur table: 1080
epoch: 1000
next table: 1040
cur table: 1073
epoch: 1000
next table: 1045
cur table: 1040
epoch: 1000
next table: 1040
cur table: 1045
epoch: 1000
next table: 1071
cur table: 1040
epoch: 1000
next table: 1038
cur table: 1071
epoch: 1000
next table: 1047
cur table: 1038
epoch: 1000
next table: 1083
cur table: 1047
epoch: 1000
next table: 1072
cur table: 1083
epoch: 1000
next table: 1039
cur table: 1072
epoch: 1000
next table: 1027
cur table: 1693
epoch: 1000
next table: 1045
cur table: 1039
epoch: 1000
next table: 1021
cur table: 1027
epoch: 1000
next table: 1040
cur table: 1045
epoch: 1000
next table: 1024
cur table: 1021
epoch: 1000
next table: 1072
cur table: 1040
epoch: 1000
next table: 1017
cur table: 1024
epoch: 1000
next table: 1039
cur table: 1072
epoch: 1000
next table: 1018
cur table: 1017
epoch: 1000
next table: 1044
cur table: 1039
epoch: 1000
next table: 1016
cur table: 1018
epoch: 1000
next table: 1040
cur table: 1044
epoch: 1000
next table: 1023
cur table: 1016
epoch: 1000
next table: 1113
cur table: 1040
epoch: 1000
next table: 1020
cur table: 1023
epoch: 1000
next table: 1042
cur table: 1113
epoch: 1000
next table: 1018
cur table: 1020
epoch: 1000
next table: 1046
cur table: 1042
epoch: 1000
next table: 1019
cur table: 1018
epoch: 1000
next table: 1042
cur table: 1046
epoch: 1000
next table: 1021
cur table: 1019
epoch: 1000
next table: 1071
cur table: 1042
epoch: 1000
next table: 1018
cur table: 1021
epoch: 1000
next table: 1040
cur table: 1071
epoch: 1000
next table: 1019
cur table: 1018
epoch: 1000
next table: 1046
cur table: 1040
epoch: 1000
next table: 1018
cur table: 1019
epoch: 1000
next table: 1040
cur table: 1046
epoch: 1000
next table: 1022
cur table: 1018
epoch: 1000
next table: 1118
cur table: 1040
epoch: 1000
next table: 1018
cur table: 1022
epoch: 1000
next table: 1040
cur table: 1118
epoch: 1000
next table: 1017
cur table: 1018
epoch: 1000
next table: 1045
cur table: 1040
epoch: 1000
next table: 1018
cur table: 1017
epoch: 1000
next table: 1040
cur table: 1045
epoch: 1000
next table: 1031
cur table: 1018
epoch: 1000
next table: 1075
cur table: 1040
epoch: 1000
next table: 1018
cur table: 1031
epoch: 1000
next table: 1039
cur table: 1075
epoch: 1000
next table: 1018
cur table: 1018
epoch: 1000
next table: 1045
cur table: 1039
epoch: 1000
next table: 1018
cur table: 1018
epoch: 1000
next table: 1040
cur table: 1045
epoch: 1000
next table: 1019
cur table: 1018
epoch: 1000
next table: 1071
cur table: 1040
epoch: 1000
next table: 1018
cur table: 1019
epoch: 1000
next table: 1040
cur table: 1071
epoch: 1000
next table: 1018
cur table: 1018
epoch: 1000
next table: 1047
cur table: 1040
epoch: 1000
next table: 1018
cur table: 1018
epoch: 1000
next table: 1040
cur table: 1047
epoch: 1000
next table: 1018
cur table: 1018
epoch: 1000
next table: 1072
cur table: 1040
epoch: 1000
next table: 1020
cur table: 1018
epoch: 1000
next table: 1041
cur table: 1072
epoch: 1000
next table: 1019
cur table: 1020
epoch: 1000
next table: 1046
cur table: 1041
epoch: 1000
next table: 1019
cur table: 1019
epoch: 1000
next table: 1041
cur table: 1046
epoch: 1000
next table: 1020
cur table: 1019
epoch: 1000
next table: 1072
cur table: 1041
epoch: 1000
next table: 1017
cur table: 1020
epoch: 1000
next table: 1040
cur table: 1072
epoch: 1000
next table: 1018
cur table: 1017
epoch: 1000
next table: 1045
cur table: 1040
epoch: 1000
next table: 1018
cur table: 1018
epoch: 1000
next table: 1041
cur table: 1045
epoch: 1000
next table: 1020
cur table: 1018
epoch: 1000
next table: 1071
cur table: 1041
epoch: 1000
next table: 1017
cur table: 1020
epoch: 1000
next table: 1040
cur table: 1071
epoch: 1000
next table: 1018
cur table: 1017
epoch: 1000
next table: 1044
cur table: 1040
epoch: 1000
next table: 1016
cur table: 1018
epoch: 1000
next table: 1039
cur table: 1044
epoch: 1000
next table: 1020
cur table: 1016
epoch: 1000
next table: 1074
cur table: 1039
epoch: 1000
next table: 1016
cur table: 1020
epoch: 1000
next table: 1040
cur table: 1074
epoch: 1000
next table: 1019
cur table: 1016
epoch: 1000
next table: 1046
cur table: 1040
epoch: 1000
next table: 1017
cur table: 1019
epoch: 1000
next table: 1040
cur table: 1046
epoch: 1000
next table: 1019
cur table: 1017
epoch: 1000
next table: 1071
cur table: 1040
epoch: 1000
next table: 1017
cur table: 1019
epoch: 1000
next table: 1040
cur table: 1071
epoch: 1000
next table: 1018
cur table: 1017
epoch: 1000
next table: 1043
cur table: 1040
epoch: 1000
next table: 1017
cur table: 1018
epoch: 1000
next table: 1040
cur table: 1043
epoch: 1000
next table: 1019
cur table: 1017
epoch: 1000
next table: 1073
cur table: 1040
epoch: 1000
next table: 1018
cur table: 1019
epoch: 1000
next table: 1040
cur table: 1073
epoch: 1000
next table: 1018
cur table: 1018
epoch: 1000
next table: 1045
cur table: 1040
epoch: 1000
next table: 1019
cur table: 1018
epoch: 1000
next table: 1041
cur table: 1045
epoch: 1000
next table: 1018
cur table: 1019
epoch: 1000
next table: 1071
cur table: 1041
epoch: 1000
next table: 1018
cur table: 1018
epoch: 1000
next table: 1039
cur table: 1071
epoch: 1000
next table: 1044
cur table: 1039
epoch: 1000
next table: 1026
cur table: 1018
epoch: 1000
next table: 1040
cur table: 1044
epoch: 1000
next table: 1072
cur table: 1040
epoch: 1000
next table: 1040
cur table: 1072
Heartbeat CPU 0 instructions: 10000000 cycles: 2902852 heartbeat IPC: 3.44489 cumulative IPC: 3.44489 (Simulation time: 0 hr 5 min 7 sec) 
epoch: 1000
next table: 1047
cur table: 1040
epoch: 1000
next table: 1040
cur table: 1047
epoch: 1000
next table: 1071
cur table: 1040
epoch: 1000
next table: 1040
cur table: 1071
epoch: 1000
next table: 1044
cur table: 1040
epoch: 1000
next table: 1040
cur table: 1044
epoch: 1000
next table: 1108
cur table: 1040
epoch: 1000
next table: 1040
cur table: 1108
epoch: 1000
next table: 1045
cur table: 1040
epoch: 1000
next table: 1040
cur table: 1045
epoch: 1000
next table: 1072
cur table: 1040
epoch: 1000
next table: 1041
cur table: 1072
epoch: 1000
next table: 1045
cur table: 1041
epoch: 1000
next table: 1040
cur table: 1045
epoch: 1000
next table: 1113
cur table: 1040
epoch: 1000
next table: 1041
cur table: 1113
epoch: 1000
next table: 1047
cur table: 1041
epoch: 1000
next table: 1039
cur table: 1047
epoch: 1000
next table: 1392
cur table: 1026
epoch: 1000
next table: 1072
cur table: 1039
epoch: 1000
next table: 1040
cur table: 1072
epoch: 1000
next table: 1043
cur table: 1040
epoch: 1000
next table: 1040
cur table: 1043
epoch: 1000
next table: 1072
cur table: 1040
epoch: 1000
next table: 1078
cur table: 1072
epoch: 1000
next table: 1044
cur table: 1078
epoch: 1000
next table: 1040
cur table: 1044
epoch: 1000
next table: 1072
cur table: 1040
epoch: 1000
next table: 1039
cur table: 1072
epoch: 1000
next table: 1044
cur table: 1039
epoch: 1000
next table: 1041
cur table: 1044
epoch: 1000
next table: 1075
cur table: 1041
epoch: 1000
next table: 1079
cur table: 1075
epoch: 1000
next table: 1048
cur table: 1079
epoch: 1000
next table: 1041
cur table: 1048
epoch: 1000
next table: 1074
cur table: 1041
epoch: 1000
next table: 1039
cur table: 1074
epoch: 1000
next table: 1044
cur table: 1039
epoch: 1000
next table: 1040
cur table: 1044
epoch: 1000
next table: 1073
cur table: 1040
epoch: 1000
next table: 1079
cur table: 1073
epoch: 1000
next table: 1045
cur table: 1079
epoch: 1000
next table: 1040
cur table: 1045
epoch: 1000
next table: 1073
cur table: 1040
epoch: 1000
next table: 1038
cur table: 1073
epoch: 1000
next table: 1046
cur table: 1038
epoch: 1000
next table: 1038
cur table: 1046
epoch: 1000
next table: 1075
cur table: 1038
epoch: 1000
next table: 1084
cur table: 1075
epoch: 1000
next table: 1086
cur table: 1084
epoch: 1000
next table: 1039
cur table: 1086
epoch: 1000
next table: 1073
cur table: 1039
epoch: 1000
next table: 1038
cur table: 1073
epoch: 1000
next table: 1043
cur table: 1038
epoch: 1000
next table: 1040
cur table: 1043
epoch: 1000
next table: 1076
cur table: 1040
epoch: 1000
next table: 1078
cur table: 1076
epoch: 1000
next table: 1066
cur table: 1078
epoch: 1000
next table: 1058
cur table: 1066
epoch: 1000
next table: 1073
cur table: 1058
epoch: 1000
next table: 1038
cur table: 1073
epoch: 1000
next table: 1047
cur table: 1038
epoch: 1000
next table: 1038
cur table: 1047
epoch: 1000
next table: 1075
cur table: 1038
epoch: 1000
next table: 1037
cur table: 1075
epoch: 1000
next table: 1090
cur table: 1037
epoch: 1000
next table: 1081
cur table: 1090
epoch: 1000
next table: 1073
cur table: 1081
epoch: 1000
next table: 1039
cur table: 1073
epoch: 1000
next table: 1044
cur table: 1039
epoch: 1000
next table: 1040
cur table: 1044
epoch: 1000
next table: 1073
cur table: 1040
epoch: 1000
next table: 1038
cur table: 1073
epoch: 1000
next table: 1086
cur table: 1038
epoch: 1000
next table: 1082
cur table: 1086
epoch: 1000
next table: 1073
cur table: 1082
epoch: 1000
next table: 1038
cur table: 1073
epoch: 1000
next table: 1046
cur table: 1038
epoch: 1000
next table: 1038
cur table: 1046
epoch: 1000
next table: 1074
cur table: 1038
epoch: 1000
next table: 1039
cur table: 1074
epoch: 1000
next table: 1093
cur table: 1039
epoch: 1000
next table: 1081
cur table: 1093
epoch: 1000
next table: 1074
cur table: 1081
epoch: 1000
next table: 1041
cur table: 1074
epoch: 1000
next table: 1043
cur table: 1041
epoch: 1000
next table: 1040
cur table: 1043
epoch: 1000
next table: 1074
cur table: 1040
epoch: 1000
next table: 1037
cur table: 1074
Heartbeat CPU 0 instructions: 20000002 cycles: 5805632 heartbeat IPC: 3.44497 cumulative IPC: 3.44493 (Simulation time: 0 hr 9 min 49 sec) 
epoch: 1000
next table: 1085
cur table: 1037
epoch: 1000
next table: 1081
cur table: 1085
epoch: 1000
next table: 1074
cur table: 1081
epoch: 1000
next table: 1037
cur table: 1074
epoch: 1000
next table: 1048
cur table: 1037
epoch: 1000
next table: 1039
cur table: 1048
epoch: 1000
next table: 1074
cur table: 1039
epoch: 1000
next table: 1037
cur table: 1074
epoch: 1000
next table: 1045
cur table: 1037
epoch: 1000
next table: 1040
cur table: 1045
epoch: 1000
next table: 1121
cur table: 1040
epoch: 1000
next table: 1040
cur table: 1121
epoch: 1000
next table: 1047
cur table: 1040
epoch: 1000
next table: 1039
cur table: 1047
epoch: 1000
next table: 1074
cur table: 1039
epoch: 1000
next table: 1038
cur table: 1074
epoch: 1000
next table: 1047
cur table: 1038
epoch: 1000
next table: 1038
cur table: 1047
epoch: 1000
next table: 1112
cur table: 1038
epoch: 1000
next table: 1038
cur table: 1112
epoch: 1000
next table: 1046
cur table: 1038
epoch: 1000
next table: 1039
cur table: 1046
epoch: 1000
next table: 1040
cur table: 1039
epoch: 1000
next table: 1074
cur table: 1040
epoch: 1000
next table: 1040
cur table: 1074
epoch: 1000
next table: 1043
cur table: 1040
epoch: 1000
next table: 1082
cur table: 1043
epoch: 1000
next table: 1071
cur table: 1082
epoch: 1000
next table: 1039
cur table: 1071
epoch: 1000
next table: 1045
cur table: 1039
epoch: 1000
next table: 1040
cur table: 1045
epoch: 1000
next table: 1072
cur table: 1040
epoch: 1000
next table: 1041
cur table: 1072
epoch: 1000
next table: 1046
cur table: 1041
epoch: 1000
next table: 1078
cur table: 1046
epoch: 1000
next table: 1070
cur table: 1078
epoch: 1000
next table: 1040
cur table: 1070
epoch: 1000
next table: 1046
cur table: 1040
epoch: 1000
next table: 1040
cur table: 1046
epoch: 1000
next table: 1072
cur table: 1040
epoch: 1000
next table: 1040
cur table: 1072
epoch: 1000
next table: 1045
cur table: 1040
epoch: 1000
next table: 1051
cur table: 1045
epoch: 1000
next table: 1103
cur table: 1051
epoch: 1000
next table: 1040
cur table: 1103
epoch: 1000
next table: 1044
cur table: 1040
epoch: 1000
next table: 1039
cur table: 1044
epoch: 1000
next table: 1072
cur table: 1039
epoch: 1000
next table: 1040
cur table: 1072
epoch: 1000
next table: 1045
cur table: 1040
epoch: 1000
next table: 1039
cur table: 1045
epoch: 1000
next table: 1073
cur table: 1039
epoch: 1000
next table: 1041
cur table: 1073
epoch: 1000
next table: 1046
cur table: 1041
epoch: 1000
next table: 1040
cur table: 1046
epoch: 1000
next table: 1073
cur table: 1040
epoch: 1000
next table: 1040
cur table: 1073
epoch: 1000
next table: 1044
cur table: 1040
epoch: 1000
next table: 1040
cur table: 1044
epoch: 1000
next table: 1071
cur table: 1040
epoch: 1000
next table: 1040
cur table: 1071
epoch: 1000
next table: 1044
cur table: 1040
epoch: 1000
next table: 1038
cur table: 1044
epoch: 1000
next table: 1073
cur table: 1038
epoch: 1000
next table: 1040
cur table: 1073
epoch: 1000
next table: 1045
cur table: 1040
epoch: 1000
next table: 1040
cur table: 1045
epoch: 1000
next table: 1075
cur table: 1040
epoch: 1000
next table: 1040
cur table: 1075
epoch: 1000
next table: 1045
cur table: 1040
epoch: 1000
next table: 1040
cur table: 1045
epoch: 1000
next table: 1072
cur table: 1040
epoch: 1000
next table: 1040
cur table: 1072
epoch: 1000
next table: 1046
cur table: 1040
epoch: 1000
next table: 1041
cur table: 1046
epoch: 1000
next table: 1071
cur table: 1041
epoch: 1000
next table: 1040
cur table: 1071
epoch: 1000
next table: 1044
cur table: 1040
epoch: 1000
next table: 1040
cur table: 1044
epoch: 1000
next table: 1071
cur table: 1040
epoch: 1000
next table: 1040
cur table: 1071
epoch: 1000
next table: 1045
cur table: 1040
epoch: 1000
next table: 1040
cur table: 1045
epoch: 1000
next table: 1071
cur table: 1040
epoch: 1000
next table: 1040
cur table: 1071
epoch: 1000
next table: 1046
cur table: 1040
epoch: 1000
next table: 1040
cur table: 1046
epoch: 1000
next table: 1072
cur table: 1040
Heartbeat CPU 0 instructions: 30000001 cycles: 8708392 heartbeat IPC: 3.445 cumulative IPC: 3.44495 (Simulation time: 0 hr 13 min 53 sec) 
epoch: 1000
next table: 1040
cur table: 1072
epoch: 1000
next table: 1045
cur table: 1040
epoch: 1000
next table: 1040
cur table: 1045
epoch: 1000
next table: 1101
cur table: 1040
epoch: 1000
next table: 1040
cur table: 1101
epoch: 1000
next table: 1044
cur table: 1040
epoch: 1000
next table: 1039
cur table: 1044
epoch: 1000
next table: 1074
cur table: 1039
epoch: 1000
next table: 1040
cur table: 1074
epoch: 1000
next table: 1044
cur table: 1040
epoch: 1000
next table: 1040
cur table: 1044
epoch: 1000
next table: 1119
cur table: 1040
epoch: 1000
next table: 1041
cur table: 1119
epoch: 1000
next table: 1047
cur table: 1041
epoch: 1000
next table: 1040
cur table: 1047
epoch: 1000
next table: 1073
cur table: 1040
epoch: 1000
next table: 1039
cur table: 1073
epoch: 1000
next table: 1045
cur table: 1039
epoch: 1000
next table: 1040
cur table: 1045
epoch: 1000
next table: 1109
cur table: 1040
epoch: 1000
next table: 1040
cur table: 1109
epoch: 1000
next table: 1044
cur table: 1040
epoch: 1000
next table: 1040
cur table: 1044
epoch: 1000
next table: 1071
cur table: 1040
epoch: 1000
next table: 1040
cur table: 1071
epoch: 1000
next table: 1045
cur table: 1040
epoch: 1000
next table: 1040
cur table: 1045
epoch: 1000
next table: 1071
cur table: 1040
epoch: 1000
next table: 1085
cur table: 1071
epoch: 1000
next table: 1046
cur table: 1085
epoch: 1000
next table: 1040
cur table: 1046
epoch: 1000
next table: 1071
cur table: 1040
epoch: 1000
next table: 1042
cur table: 1071
epoch: 1000
next table: 1047
cur table: 1042
epoch: 1000
next table: 1041
cur table: 1047
epoch: 1000
next table: 1073
cur table: 1041
epoch: 1000
next table: 1079
cur table: 1073
epoch: 1000
next table: 1045
cur table: 1079
epoch: 1000
next table: 1038
cur table: 1045
epoch: 1000
next table: 1075
cur table: 1038
epoch: 1000
next table: 1038
cur table: 1075
epoch: 1000
next table: 1048
cur table: 1038
epoch: 1000
next table: 1040
cur table: 1048
epoch: 1000
next table: 1074
cur table: 1040
epoch: 1000
next table: 1082
cur table: 1074
epoch: 1000
next table: 1081
cur table: 1082
epoch: 1000
next table: 1039
cur table: 1081
epoch: 1000
next table: 1074
cur table: 1039
epoch: 1000
next table: 1039
cur table: 1074
epoch: 1000
next table: 1045
cur table: 1039
epoch: 1000
next table: 1038
cur table: 1045
epoch: 1000
next table: 1073
cur table: 1038
epoch: 1000
next table: 1086
cur table: 1073
epoch: 1000
next table: 1085
cur table: 1086
epoch: 1000
next table: 1040
cur table: 1085
epoch: 1000
next table: 1074
cur table: 1040
epoch: 1000
next table: 1038
cur table: 1074
epoch: 1000
next table: 1049
cur table: 1038
epoch: 1000
next table: 1038
cur table: 1049
epoch: 1000
next table: 1072
cur table: 1038
epoch: 1000
next table: 1075
cur table: 1072
epoch: 1000
next table: 1061
cur table: 1075
epoch: 1000
next table: 1071
cur table: 1061
epoch: 1000
next table: 1075
cur table: 1071
epoch: 1000
next table: 1038
cur table: 1075
epoch: 1000
next table: 1046
cur table: 1038
epoch: 1000
next table: 1037
cur table: 1046
epoch: 1000
next table: 1073
cur table: 1037
epoch: 1000
next table: 1038
cur table: 1073
epoch: 1000
next table: 1087
cur table: 1038
epoch: 1000
next table: 1081
cur table: 1087
epoch: 1000
next table: 1075
cur table: 1081
epoch: 1000
next table: 1038
cur table: 1075
epoch: 1000
next table: 1048
cur table: 1038
epoch: 1000
next table: 1039
cur table: 1048
epoch: 1000
next table: 1076
cur table: 1039
epoch: 1000
next table: 1039
cur table: 1076
epoch: 1000
next table: 1085
cur table: 1039
epoch: 1000
next table: 1080
cur table: 1085
epoch: 1000
next table: 1075
cur table: 1080
epoch: 1000
next table: 1039
cur table: 1075
epoch: 1000
next table: 1045
cur table: 1039
epoch: 1000
next table: 1040
cur table: 1045
epoch: 1000
next table: 1070
cur table: 1040
epoch: 1000
next table: 1038
cur table: 1070
epoch: 1000
next table: 1090
cur table: 1038
epoch: 1000
next table: 1078
cur table: 1090
epoch: 1000
next table: 1073
cur table: 1078
Heartbeat CPU 0 instructions: 40000003 cycles: 11611186 heartbeat IPC: 3.44496 cumulative IPC: 3.44495 (Simulation time: 0 hr 17 min 49 sec) 
epoch: 1000
next table: 1038
cur table: 1073
epoch: 1000
next table: 1049
cur table: 1038
epoch: 1000
next table: 1038
cur table: 1049
epoch: 1000
next table: 1072
cur table: 1038
epoch: 1000
next table: 1040
cur table: 1072
epoch: 1000
next table: 1047
cur table: 1040
epoch: 1000
next table: 1079
cur table: 1047
epoch: 1000
next table: 1074
cur table: 1079
epoch: 1000
next table: 1040
cur table: 1074
epoch: 1000
next table: 1044
cur table: 1040
epoch: 1000
next table: 1037
cur table: 1044
epoch: 1000
next table: 1074
cur table: 1037
epoch: 1000
next table: 1038
cur table: 1074
epoch: 1000
next table: 1045
cur table: 1038
epoch: 1000
next table: 1038
cur table: 1045
epoch: 1000
next table: 1114
cur table: 1038
epoch: 1000
next table: 1040
cur table: 1114
epoch: 1000
next table: 1046
cur table: 1040
epoch: 1000
next table: 1038
cur table: 1046
epoch: 1000
next table: 1076
cur table: 1038
epoch: 1000
next table: 1039
cur table: 1076
epoch: 1000
next table: 1044
cur table: 1039
epoch: 1000
next table: 1038
cur table: 1044
epoch: 1000
next table: 1113
cur table: 1038
epoch: 1000
next table: 1040
cur table: 1113
epoch: 1000
next table: 1046
cur table: 1040
epoch: 1000
next table: 1042
cur table: 1046
epoch: 1000
next table: 1071
cur table: 1042
epoch: 1000
next table: 1038
cur table: 1071
epoch: 1000
next table: 1046
cur table: 1038
epoch: 1000
next table: 1038
cur table: 1046
epoch: 1000
next table: 1114
cur table: 1038
epoch: 1000
next table: 1038
cur table: 1114
epoch: 1000
next table: 1049
cur table: 1038
epoch: 1000
next table: 1037
cur table: 1049
epoch: 1000
next table: 1073
cur table: 1037
epoch: 1000
next table: 1038
cur table: 1073
epoch: 1000
next table: 1046
cur table: 1038
epoch: 1000
next table: 1037
cur table: 1046
epoch: 1000
next table: 1116
cur table: 1037
epoch: 1000
next table: 1038
cur table: 1116
epoch: 1000
next table: 1046
cur table: 1038
epoch: 1000
next table: 1038
cur table: 1046
epoch: 1000
next table: 1073
cur table: 1038
epoch: 1000
next table: 1037
cur table: 1073
epoch: 1000
next table: 1046
cur table: 1037
epoch: 1000
next table: 1038
cur table: 1046
epoch: 1000
next table: 1076
cur table: 1038
epoch: 1000
next table: 1037
cur table: 1076
epoch: 1000
next table: 1049
cur table: 1037
epoch: 1000
next table: 1038
cur table: 1049
epoch: 1000
next table: 1074
cur table: 1038
epoch: 1000
next table: 1040
cur table: 1074
epoch: 1000
next table: 1047
cur table: 1040
epoch: 1000
next table: 1039
cur table: 1047
epoch: 1000
next table: 1074
cur table: 1039
epoch: 1000
next table: 1038
cur table: 1074
epoch: 1000
next table: 1047
cur table: 1038
epoch: 1000
next table: 1038
cur table: 1047
epoch: 1000
next table: 1073
cur table: 1038
epoch: 1000
next table: 1038
cur table: 1073
epoch: 1000
next table: 1046
cur table: 1038
epoch: 1000
next table: 1040
cur table: 1046
epoch: 1000
next table: 1071
cur table: 1040
epoch: 1000
next table: 1041
cur table: 1071
epoch: 1000
next table: 1047
cur table: 1041
epoch: 1000
next table: 1038
cur table: 1047
epoch: 1000
next table: 1072
cur table: 1038
epoch: 1000
next table: 1040
cur table: 1072
epoch: 1000
next table: 1038
cur table: 1040
epoch: 1000
next table: 1043
cur table: 1038
epoch: 1000
next table: 1040
cur table: 1043
epoch: 1000
next table: 1075
cur table: 1040
epoch: 1000
next table: 1040
cur table: 1075
epoch: 1000
next table: 1048
cur table: 1040
epoch: 1000
next table: 1039
cur table: 1048
epoch: 1000
next table: 1074
cur table: 1039
epoch: 1000
next table: 1038
cur table: 1074
epoch: 1000
next table: 1046
cur table: 1038
epoch: 1000
next table: 1038
cur table: 1046
epoch: 1000
next table: 1074
cur table: 1038
epoch: 1000
next table: 1037
cur table: 1074
epoch: 1000
next table: 1048
cur table: 1037
epoch: 1000
next table: 1038
cur table: 1048
epoch: 1000
next table: 1077
cur table: 1038
epoch: 1000
next table: 1038
cur table: 1077
epoch: 1000
next table: 1046
cur table: 1038
epoch: 1000
next table: 1038
cur table: 1046
Heartbeat CPU 0 instructions: 50000001 cycles: 14513940 heartbeat IPC: 3.445 cumulative IPC: 3.44496 (Simulation time: 0 hr 21 min 34 sec) 

Warmup complete CPU 0 instructions: 50000001 cycles: 14513940 (Simulation time: 0 hr 21 min 34 sec) 

epoch: 1000
next table: 1046
cur table: 1041
epoch: 1000
next table: 1042
cur table: 1046
epoch: 1000
next table: 1073
cur table: 1042
epoch: 1000
next table: 1041
cur table: 1073
epoch: 1000
next table: 1046
cur table: 1041
epoch: 1000
next table: 1040
cur table: 1046
epoch: 1000
next table: 1074
cur table: 1040
epoch: 1000
next table: 1083
cur table: 1074
epoch: 1000
next table: 1046
cur table: 1083
epoch: 1000
next table: 1041
cur table: 1046
epoch: 1000
next table: 1072
cur table: 1041
epoch: 1000
next table: 1042
cur table: 1072
epoch: 1000
next table: 1039
cur table: 1042
epoch: 1000
next table: 1045
cur table: 1039
epoch: 1000
next table: 1041
cur table: 1045
epoch: 1000
next table: 1120
cur table: 1041
epoch: 1000
next table: 1039
cur table: 1120
epoch: 1000
next table: 1047
cur table: 1039
epoch: 1000
next table: 1040
cur table: 1047
epoch: 1000
next table: 1078
cur table: 1040
epoch: 1000
next table: 1039
cur table: 1078
epoch: 1000
next table: 1048
cur table: 1039
epoch: 1000
next table: 1041
cur table: 1048
epoch: 1000
next table: 1115
cur table: 1041
epoch: 1000
next table: 1040
cur table: 1115
epoch: 1000
next table: 1047
cur table: 1040
epoch: 1000
next table: 1042
cur table: 1047
epoch: 1000
next table: 1074
cur table: 1042
epoch: 1000
next table: 1039
cur table: 1074
epoch: 1000
next table: 1045
cur table: 1039
epoch: 1000
next table: 1042
cur table: 1045
epoch: 1000
next table: 1116
cur table: 1042
epoch: 1000
next table: 1038
cur table: 1116
epoch: 1000
next table: 1046
cur table: 1038
epoch: 1000
next table: 1040
cur table: 1046
epoch: 1000
next table: 1077
cur table: 1040
epoch: 1000
next table: 1039
cur table: 1077
epoch: 1000
next table: 1049
cur table: 1039
epoch: 1000
next table: 1037
cur table: 1049
epoch: 1000
next table: 1077
cur table: 1037
epoch: 1000
next table: 1079
cur table: 1077
epoch: 1000
next table: 1084
cur table: 1079
epoch: 1000
next table: 1038
cur table: 1084
epoch: 1000
next table: 1074
cur table: 1038
epoch: 1000
next table: 1040
cur table: 1074
epoch: 1000
next table: 1047
cur table: 1040
epoch: 1000
next table: 1039
cur table: 1047
epoch: 1000
next table: 1076
cur table: 1039
epoch: 1000
next table: 1080
cur table: 1076
epoch: 1000
next table: 1090
cur table: 1080
epoch: 1000
next table: 1040
cur table: 1090
epoch: 1000
next table: 1077
cur table: 1040
epoch: 1000
next table: 1041
cur table: 1077
epoch: 1000
next table: 1046
cur table: 1041
epoch: 1000
next table: 1040
cur table: 1046
epoch: 1000
next table: 1076
cur table: 1040
epoch: 1000
next table: 1078
cur table: 1076
epoch: 1000
next table: 1090
cur table: 1078
epoch: 1000
next table: 1040
cur table: 1090
epoch: 1000
next table: 1077
cur table: 1040
epoch: 1000
next table: 1041
cur table: 1077
epoch: 1000
next table: 1045
cur table: 1041
epoch: 1000
next table: 1039
cur table: 1045
epoch: 1000
next table: 1076
cur table: 1039
epoch: 1000
next table: 1085
cur table: 1076
epoch: 1000
next table: 1087
cur table: 1085
epoch: 1000
next table: 1040
cur table: 1087
epoch: 1000
next table: 1074
cur table: 1040
epoch: 1000
next table: 1042
cur table: 1074
epoch: 1000
next table: 1047
cur table: 1042
epoch: 1000
next table: 1040
cur table: 1047
epoch: 1000
next table: 1074
cur table: 1040
epoch: 1000
next table: 1082
cur table: 1074
epoch: 1000
next table: 1069
cur table: 1082
epoch: 1000
next table: 1063
cur table: 1069
epoch: 1000
next table: 1075
cur table: 1063
epoch: 1000
next table: 1040
cur table: 1075
epoch: 1000
next table: 1045
cur table: 1040
epoch: 1000
next table: 1039
cur table: 1045
epoch: 1000
next table: 1078
cur table: 1039
epoch: 1000
next table: 1041
cur table: 1078
epoch: 1000
next table: 1085
cur table: 1041
epoch: 1000
next table: 1084
cur table: 1085
epoch: 1000
next table: 1075
cur table: 1084
epoch: 1000
next table: 1041
cur table: 1075
epoch: 1000
next table: 1046
cur table: 1041
Heartbeat CPU 0 instructions: 60000003 cycles: 24492883 heartbeat IPC: 1.00211 cumulative IPC: 1.00211 (Simulation time: 0 hr 24 min 6 sec) 
epoch: 1000
next table: 1039
cur table: 1046
epoch: 1000
next table: 1076
cur table: 1039
epoch: 1000
next table: 1039
cur table: 1076
epoch: 1000
next table: 1049
cur table: 1039
epoch: 1000
next table: 1084
cur table: 1049
epoch: 1000
next table: 1074
cur table: 1084
epoch: 1000
next table: 1040
cur table: 1074
epoch: 1000
next table: 1048
cur table: 1040
epoch: 1000
next table: 1039
cur table: 1048
epoch: 1000
next table: 1073
cur table: 1039
epoch: 1000
next table: 1042
cur table: 1073
epoch: 1000
next table: 1047
cur table: 1042
epoch: 1000
next table: 1082
cur table: 1047
epoch: 1000
next table: 1074
cur table: 1082
epoch: 1000
next table: 1041
cur table: 1074
epoch: 1000
next table: 1046
cur table: 1041
epoch: 1000
next table: 1040
cur table: 1046
epoch: 1000
next table: 1076
cur table: 1040
epoch: 1000
next table: 1041
cur table: 1076
epoch: 1000
next table: 1045
cur table: 1041
epoch: 1000
next table: 1079
cur table: 1045
epoch: 1000
next table: 1076
cur table: 1079
epoch: 1000
next table: 1042
cur table: 1076
epoch: 1000
next table: 1045
cur table: 1042
epoch: 1000
next table: 1040
cur table: 1045
epoch: 1000
next table: 1074
cur table: 1040
epoch: 1000
next table: 1042
cur table: 1074
epoch: 1000
next table: 1045
cur table: 1042
epoch: 1000
next table: 1039
cur table: 1045
epoch: 1000
next table: 1114
cur table: 1039
epoch: 1000
next table: 1042
cur table: 1114
epoch: 1000
next table: 1047
cur table: 1042
epoch: 1000
next table: 1041
cur table: 1047
epoch: 1000
next table: 1072
cur table: 1041
epoch: 1000
next table: 1042
cur table: 1072
epoch: 1000
next table: 1046
cur table: 1042
epoch: 1000
next table: 1042
cur table: 1046
epoch: 1000
next table: 1114
cur table: 1042
epoch: 1000
next table: 1040
cur table: 1114
epoch: 1000
next table: 1046
cur table: 1040
epoch: 1000
next table: 1042
cur table: 1046
epoch: 1000
next table: 1073
cur table: 1042
epoch: 1000
next table: 1039
cur table: 1073
epoch: 1000
next table: 1047
cur table: 1039
epoch: 1000
next table: 1042
cur table: 1047
epoch: 1000
next table: 1074
cur table: 1042
epoch: 1000
next table: 1041
cur table: 1074
epoch: 1000
next table: 1045
cur table: 1041
epoch: 1000
next table: 1040
cur table: 1045
epoch: 1000
next table: 1077
cur table: 1040
epoch: 1000
next table: 1039
cur table: 1077
epoch: 1000
next table: 1047
cur table: 1039
epoch: 1000
next table: 1041
cur table: 1047
epoch: 1000
next table: 1074
cur table: 1041
epoch: 1000
next table: 1040
cur table: 1074
epoch: 1000
next table: 1046
cur table: 1040
epoch: 1000
next table: 1042
cur table: 1046
epoch: 1000
next table: 1074
cur table: 1042
epoch: 1000
next table: 1039
cur table: 1074
epoch: 1000
next table: 1051
cur table: 1039
epoch: 1000
next table: 1040
cur table: 1051
epoch: 1000
next table: 1075
cur table: 1040
epoch: 1000
next table: 1039
cur table: 1075
epoch: 1000
next table: 1048
cur table: 1039
epoch: 1000
next table: 1039
cur table: 1048
epoch: 1000
next table: 1078
cur table: 1039
epoch: 1000
next table: 1038
cur table: 1078
epoch: 1000
next table: 1048
cur table: 1038
epoch: 1000
next table: 1039
cur table: 1048
epoch: 1000
next table: 1076
cur table: 1039
epoch: 1000
next table: 1039
cur table: 1076
epoch: 1000
next table: 1045
cur table: 1039
epoch: 1000
next table: 1039
cur table: 1045
epoch: 1000
next table: 1080
cur table: 1039
epoch: 1000
next table: 1039
cur table: 1080
epoch: 1000
next table: 1050
cur table: 1039
epoch: 1000
next table: 1038
cur table: 1050
epoch: 1000
next table: 1076
cur table: 1038
epoch: 1000
next table: 1040
cur table: 1076
epoch: 1000
next table: 1048
cur table: 1040
epoch: 1000
next table: 1039
cur table: 1048
epoch: 1000
next table: 1075
cur table: 1039
epoch: 1000
next table: 1039
cur table: 1075
epoch: 1000
next table: 1049
cur table: 1039
epoch: 1000
next table: 1040
cur table: 1049
epoch: 1000
next table: 1091
cur table: 1040
epoch: 1000
next table: 1038
cur table: 1091
epoch: 1000
next table: 1047
cur table: 1038
Heartbeat CPU 0 instructions: 70000000 cycles: 34472655 heartbeat IPC: 1.00203 cumulative IPC: 1.00207 (Simulation time: 0 hr 26 min 27 sec) 
epoch: 1000
next table: 1040
cur table: 1047
epoch: 1000
next table: 1075
cur table: 1040
epoch: 1000
next table: 1039
cur table: 1075
epoch: 1000
next table: 1050
cur table: 1039
epoch: 1000
next table: 1040
cur table: 1050
epoch: 1000
next table: 1118
cur table: 1040
epoch: 1000
next table: 1039
cur table: 1118
epoch: 1000
next table: 1046
cur table: 1039
epoch: 1000
next table: 1038
cur table: 1046
epoch: 1000
next table: 1077
cur table: 1038
epoch: 1000
next table: 1040
cur table: 1077
epoch: 1000
next table: 1047
cur table: 1040
epoch: 1000
next table: 1038
cur table: 1047
epoch: 1000
next table: 1077
cur table: 1038
epoch: 1000
next table: 1087
cur table: 1077
epoch: 1000
next table: 1048
cur table: 1087
epoch: 1000
next table: 1039
cur table: 1048
epoch: 1000
next table: 1073
cur table: 1039
epoch: 1000
next table: 1040
cur table: 1073
epoch: 1000
next table: 1051
cur table: 1040
epoch: 1000
next table: 1038
cur table: 1051
epoch: 1000
next table: 1072
cur table: 1038
epoch: 1000
next table: 1080
cur table: 1072
epoch: 1000
next table: 1045
cur table: 1080
epoch: 1000
next table: 1042
cur table: 1045
epoch: 1000
next table: 1075
cur table: 1042
epoch: 1000
next table: 1041
cur table: 1075
epoch: 1000
next table: 1045
cur table: 1041
epoch: 1000
next table: 1041
cur table: 1045
epoch: 1000
next table: 1075
cur table: 1041
epoch: 1000
next table: 1087
cur table: 1075
epoch: 1000
next table: 1046
cur table: 1087
epoch: 1000
next table: 1038
cur table: 1046
epoch: 1000
next table: 1075
cur table: 1038
epoch: 1000
next table: 1042
cur table: 1075
epoch: 1000
next table: 1048
cur table: 1042
epoch: 1000
next table: 1041
cur table: 1048
epoch: 1000
next table: 1074
cur table: 1041
epoch: 1000
next table: 1086
cur table: 1074
epoch: 1000
next table: 1071
cur table: 1086
epoch: 1000
next table: 1041
cur table: 1071
epoch: 1000
next table: 1073
cur table: 1041
epoch: 1000
next table: 1042
cur table: 1073
epoch: 1000
next table: 1047
cur table: 1042
epoch: 1000
next table: 1041
cur table: 1047
epoch: 1000
next table: 1072
cur table: 1041
epoch: 1000
next table: 1042
cur table: 1072
epoch: 1000
next table: 1089
cur table: 1042
epoch: 1000
next table: 1082
cur table: 1089
epoch: 1000
next table: 1075
cur table: 1082
epoch: 1000
next table: 1040
cur table: 1075
epoch: 1000
next table: 1047
cur table: 1040
epoch: 1000
next table: 1041
cur table: 1047
epoch: 1000
next table: 1074
cur table: 1041
epoch: 1000
next table: 1041
cur table: 1074
epoch: 1000
next table: 1086
cur table: 1041
epoch: 1000
next table: 1086
cur table: 1086
epoch: 1000
next table: 1074
cur table: 1086
epoch: 1000
next table: 1042
cur table: 1074
epoch: 1000
next table: 1046
cur table: 1042
epoch: 1000
next table: 1041
cur table: 1046
epoch: 1000
next table: 1072
cur table: 1041
epoch: 1000
next table: 1042
cur table: 1072
epoch: 1000
next table: 1097
cur table: 1042
epoch: 1000
next table: 1082
cur table: 1097
epoch: 1000
next table: 1073
cur table: 1082
epoch: 1000
next table: 1041
cur table: 1073
epoch: 1000
next table: 1049
cur table: 1041
epoch: 1000
next table: 1040
cur table: 1049
epoch: 1000
next table: 1075
cur table: 1040
epoch: 1000
next table: 1041
cur table: 1075
epoch: 1000
next table: 1087
cur table: 1041
epoch: 1000
next table: 1083
cur table: 1087
epoch: 1000
next table: 1038
cur table: 1083
epoch: 1000
next table: 1075
cur table: 1038
epoch: 1000
next table: 1040
cur table: 1075
epoch: 1000
next table: 1048
cur table: 1040
epoch: 1000
next table: 1040
cur table: 1048
epoch: 1000
next table: 1077
cur table: 1040
epoch: 1000
next table: 1083
cur table: 1077
epoch: 1000
next table: 1079
cur table: 1083
epoch: 1000
next table: 1048
cur table: 1079
epoch: 1000
next table: 1076
cur table: 1048
epoch: 1000
next table: 1037
cur table: 1076
epoch: 1000
next table: 1047
cur table: 1037
epoch: 1000
next table: 1039
cur table: 1047
epoch: 1000
next table: 1074
cur table: 1039
epoch: 1000
next table: 1040
cur table: 1074
epoch: 1000
next table: 1048
cur table: 1040
Heartbeat CPU 0 instructions: 80000001 cycles: 44453662 heartbeat IPC: 1.0019 cumulative IPC: 1.00201 (Simulation time: 0 hr 28 min 39 sec) 
epoch: 1000
next table: 1079
cur table: 1048
epoch: 1000
next table: 1073
cur table: 1079
epoch: 1000
next table: 1040
cur table: 1073
epoch: 1000
next table: 1049
cur table: 1040
epoch: 1000
next table: 1039
cur table: 1049
epoch: 1000
next table: 1073
cur table: 1039
epoch: 1000
next table: 1040
cur table: 1073
epoch: 1000
next table: 1050
cur table: 1040
epoch: 1000
next table: 1082
cur table: 1050
epoch: 1000
next table: 1076
cur table: 1082
epoch: 1000
next table: 1039
cur table: 1076
epoch: 1000
next table: 1048
cur table: 1039
epoch: 1000
next table: 1039
cur table: 1048
epoch: 1000
next table: 1077
cur table: 1039
epoch: 1000
next table: 1039
cur table: 1077
epoch: 1000
next table: 1047
cur table: 1039
epoch: 1000
next table: 1082
cur table: 1047
epoch: 1000
next table: 1076
cur table: 1082
epoch: 1000
next table: 1038
cur table: 1076
epoch: 1000
next table: 1046
cur table: 1038
epoch: 1000
next table: 1040
cur table: 1046
epoch: 1000
next table: 1076
cur table: 1040
epoch: 1000
next table: 1038
cur table: 1076
epoch: 1000
next table: 1049
cur table: 1038
epoch: 1000
next table: 1083
cur table: 1049
epoch: 1000
next table: 1078
cur table: 1083
epoch: 1000
next table: 1038
cur table: 1078
epoch: 1000
next table: 1049
cur table: 1038
epoch: 1000
next table: 1039
cur table: 1049
epoch: 1000
next table: 1073
cur table: 1039
epoch: 1000
next table: 1040
cur table: 1073
epoch: 1000
next table: 1048
cur table: 1040
epoch: 1000
next table: 1040
cur table: 1048
epoch: 1000
next table: 1116
cur table: 1040
epoch: 1000
next table: 1039
cur table: 1116
epoch: 1000
next table: 1051
cur table: 1039
epoch: 1000
next table: 1040
cur table: 1051
epoch: 1000
next table: 1075
cur table: 1040
epoch: 1000
next table: 1040
cur table: 1075
epoch: 1000
next table: 1047
cur table: 1040
epoch: 1000
next table: 1040
cur table: 1047
epoch: 1000
next table: 1075
cur table: 1040
epoch: 1000
next table: 1039
cur table: 1075
epoch: 1000
next table: 1048
cur table: 1039
epoch: 1000
next table: 1039
cur table: 1048
epoch: 1000
next table: 1078
cur table: 1039
epoch: 1000
next table: 1041
cur table: 1078
epoch: 1000
next table: 1045
cur table: 1041
epoch: 1000
next table: 1039
cur table: 1045
epoch: 1000
next table: 1075
cur table: 1039
epoch: 1000
next table: 1040
cur table: 1075
epoch: 1000
next table: 1047
cur table: 1040
epoch: 1000
next table: 1038
cur table: 1047
epoch: 1000
next table: 1076
cur table: 1038
epoch: 1000
next table: 1039
cur table: 1076
epoch: 1000
next table: 1050
cur table: 1039
epoch: 1000
next table: 1039
cur table: 1050
epoch: 1000
next table: 1074
cur table: 1039
epoch: 1000
next table: 1042
cur table: 1074
epoch: 1000
next table: 1046
cur table: 1042
epoch: 1000
next table: 1040
cur table: 1046
epoch: 1000
next table: 1075
cur table: 1040
epoch: 1000
next table: 1040
cur table: 1075
epoch: 1000
next table: 1046
cur table: 1040
epoch: 1000
next table: 1042
cur table: 1046
epoch: 1000
next table: 1073
cur table: 1042
epoch: 1000
next table: 1041
cur table: 1073
epoch: 1000
next table: 1045
cur table: 1041
epoch: 1000
next table: 1041
cur table: 1045
epoch: 1000
next table: 1074
cur table: 1041
epoch: 1000
next table: 1042
cur table: 1074
epoch: 1000
next table: 1047
cur table: 1042
epoch: 1000
next table: 1040
cur table: 1047
epoch: 1000
next table: 1076
cur table: 1040
epoch: 1000
next table: 1042
cur table: 1076
epoch: 1000
next table: 1047
cur table: 1042
epoch: 1000
next table: 1041
cur table: 1047
epoch: 1000
next table: 1073
cur table: 1041
epoch: 1000
next table: 1042
cur table: 1073
epoch: 1000
next table: 1046
cur table: 1042
epoch: 1000
next table: 1041
cur table: 1046
epoch: 1000
next table: 1072
cur table: 1041
epoch: 1000
next table: 1042
cur table: 1072
epoch: 1000
next table: 1048
cur table: 1042
epoch: 1000
next table: 1041
cur table: 1048
epoch: 1000
next table: 1072
cur table: 1041
epoch: 1000
next table: 1041
cur table: 1072
Heartbeat CPU 0 instructions: 90000000 cycles: 54433106 heartbeat IPC: 1.00206 cumulative IPC: 1.00202 (Simulation time: 0 hr 31 min 27 sec) 
epoch: 1000
next table: 1046
cur table: 1041
epoch: 1000
next table: 1042
cur table: 1046
epoch: 1000
next table: 1117
cur table: 1042
epoch: 1000
next table: 1040
cur table: 1117
epoch: 1000
next table: 1044
cur table: 1040
epoch: 1000
next table: 1041
cur table: 1044
epoch: 1000
next table: 1074
cur table: 1041
epoch: 1000
next table: 1041
cur table: 1074
epoch: 1000
next table: 1045
cur table: 1041
epoch: 1000
next table: 1040
cur table: 1045
epoch: 1000
next table: 1123
cur table: 1040
epoch: 1000
next table: 1039
cur table: 1123
epoch: 1000
next table: 1049
cur table: 1039
epoch: 1000
next table: 1039
cur table: 1049
epoch: 1000
next table: 1074
cur table: 1039
epoch: 1000
next table: 1039
cur table: 1074
epoch: 1000
next table: 1050
cur table: 1039
epoch: 1000
next table: 1040
cur table: 1050
epoch: 1000
next table: 1096
cur table: 1040
epoch: 1000
next table: 1058
cur table: 1096
epoch: 1000
next table: 1049
cur table: 1058
epoch: 1000
next table: 1040
cur table: 1049
epoch: 1000
next table: 1076
cur table: 1040
epoch: 1000
next table: 1039
cur table: 1076
epoch: 1000
next table: 1047
cur table: 1039
epoch: 1000
next table: 1040
cur table: 1047
epoch: 1000
next table: 1075
cur table: 1040
epoch: 1000
next table: 1084
cur table: 1075
epoch: 1000
next table: 1050
cur table: 1084
epoch: 1000
next table: 1040
cur table: 1050
epoch: 1000
next table: 1080
cur table: 1040
epoch: 1000
next table: 1041
cur table: 1080
epoch: 1000
next table: 1043
cur table: 1041
epoch: 1000
next table: 1038
cur table: 1043
epoch: 1000
next table: 1077
cur table: 1038
epoch: 1000
next table: 1080
cur table: 1077
epoch: 1000
next table: 1061
cur table: 1080
epoch: 1000
next table: 1039
cur table: 1061
epoch: 1000
next table: 1074
cur table: 1039
epoch: 1000
next table: 1040
cur table: 1074
epoch: 1000
next table: 1048
cur table: 1040
epoch: 1000
next table: 1040
cur table: 1048
epoch: 1000
next table: 1073
cur table: 1040
epoch: 1000
next table: 1081
cur table: 1073
epoch: 1000
next table: 1094
cur table: 1081
epoch: 1000
next table: 1039
cur table: 1094
epoch: 1000
next table: 1076
cur table: 1039
epoch: 1000
next table: 1038
cur table: 1076
epoch: 1000
next table: 1047
cur table: 1038
epoch: 1000
next table: 1039
cur table: 1047
epoch: 1000
next table: 1078
cur table: 1039
epoch: 1000
next table: 1080
cur table: 1078
epoch: 1000
next table: 1068
cur table: 1080
epoch: 1000
next table: 1060
cur table: 1068
epoch: 1000
next table: 1076
cur table: 1060
epoch: 1000
next table: 1040
cur table: 1076
epoch: 1000
next table: 1046
cur table: 1040
epoch: 1000
next table: 1039
cur table: 1046
epoch: 1000
next table: 1077
cur table: 1039
epoch: 1000
next table: 1040
cur table: 1077
epoch: 1000
next table: 1092
cur table: 1040
epoch: 1000
next table: 1081
cur table: 1092
epoch: 1000
next table: 1077
cur table: 1081
epoch: 1000
next table: 1041
cur table: 1077
epoch: 1000
next table: 1046
cur table: 1041
epoch: 1000
next table: 1039
cur table: 1046
epoch: 1000
next table: 1076
cur table: 1039
epoch: 1000
next table: 1039
cur table: 1076
epoch: 1000
next table: 1088
cur table: 1039
epoch: 1000
next table: 1083
cur table: 1088
epoch: 1000
next table: 1076
cur table: 1083
epoch: 1000
next table: 1038
cur table: 1076
epoch: 1000
next table: 1048
cur table: 1038
epoch: 1000
next table: 1040
cur table: 1048
epoch: 1000
next table: 1075
cur table: 1040
epoch: 1000
next table: 1039
cur table: 1075
epoch: 1000
next table: 1091
cur table: 1039
epoch: 1000
next table: 1084
cur table: 1091
epoch: 1000
next table: 1075
cur table: 1084
epoch: 1000
next table: 1040
cur table: 1075
epoch: 1000
next table: 1046
cur table: 1040
epoch: 1000
next table: 1037
cur table: 1046
epoch: 1000
next table: 1076
cur table: 1037
epoch: 1000
next table: 1040
cur table: 1076
epoch: 1000
next table: 1048
cur table: 1040
epoch: 1000
next table: 1081
cur table: 1048
epoch: 1000
next table: 1076
cur table: 1081
epoch: 1000
next table: 1040
cur table: 1076
Heartbeat CPU 0 instructions: 100000000 cycles: 64414294 heartbeat IPC: 1.00188 cumulative IPC: 1.002 (Simulation time: 0 hr 36 min 31 sec) 
Finished CPU 0 instructions: 50000003 cycles: 49900355 cumulative IPC: 1.002 (Simulation time: 0 hr 36 min 31 sec) 

ChampSim completed all CPUs

Region of Interest Statistics

CPU 0 cumulative IPC: 1.002 instructions: 50000003 cycles: 49900355
ITLB TOTAL     ACCESS:    7017680  HIT:    7017680  MISS:          0  HIT %:        100  MISS %:          0   MPKI: 0
ITLB LOAD TRANSLATION ACCESS:    7017680  HIT:    7017680  MISS:          0  HIT %:        100  MISS %:          0   MPKI: 0
ITLB PREFETCH  REQUESTED:          0  ISSUED:          0  USEFUL:          0  USELESS:          0
ITLB USEFUL LOAD PREFETCHES:          0 PREFETCH ISSUED TO LOWER LEVEL:          0  ACCURACY: -nan
ITLB TIMELY PREFETCHES:          0 LATE PREFETCHES: 0 DROPPED PREFETCHES: 0
ITLB PREFETCHES SAME FILL-ORIGIN LEVEL: 0 DIFFERENT FILL-ORIGIN LEVEL: 0
ITLB AVERAGE MISS LATENCY: -nan cycles
ITLB RQ	ACCESS:    8772745	FORWARD:          0	MERGED:    1755066	TO_CACHE:    7017679

Revised Interactions: positive negative neutral
ITLB_interactions 0 0 0 -nan -nan -nan
DTLB TOTAL     ACCESS:    8128129  HIT:    8116288  MISS:      11841  HIT %:    99.8543  MISS %:   0.145679   MPKI: 0.23682
DTLB LOAD TRANSLATION ACCESS:    8128129  HIT:    8116288  MISS:      11841  HIT %:    99.8543  MISS %:   0.145679   MPKI: 0.23682
DTLB PREFETCH  REQUESTED:          0  ISSUED:          0  USEFUL:          0  USELESS:          0
DTLB USEFUL LOAD PREFETCHES:          0 PREFETCH ISSUED TO LOWER LEVEL:          0  ACCURACY: -nan
DTLB TIMELY PREFETCHES:          0 LATE PREFETCHES: 0 DROPPED PREFETCHES: 0
DTLB PREFETCHES SAME FILL-ORIGIN LEVEL: 0 DIFFERENT FILL-ORIGIN LEVEL: 0
DTLB AVERAGE MISS LATENCY: 88.3566 cycles
DTLB RQ	ACCESS:   12579022	FORWARD:          0	MERGED:    4450091	TO_CACHE:    8128931

Revised Interactions: positive negative neutral
DTLB_interactions 0 0 0 -nan -nan -nan
STLB TOTAL     ACCESS:     609300  HIT:     602442  MISS:       6858  HIT %:    98.8744  MISS %:    1.12555   MPKI: 0.13716
STLB LOAD TRANSLATION ACCESS:      11841  HIT:       4983  MISS:       6858  HIT %:    42.0826  MISS %:    57.9174   MPKI: 0.13716
STLB TRANSLATION FROM L1D PREFETCHER ACCESS:     597459  HIT:     597459  MISS:          0  HIT %:        100  MISS %:          0   MPKI: 0
STLB PREFETCH  REQUESTED:          0  ISSUED:          0  USEFUL:          0  USELESS:          0
STLB USEFUL LOAD PREFETCHES:          0 PREFETCH ISSUED TO LOWER LEVEL:          0  ACCURACY: -nan
STLB TIMELY PREFETCHES:          0 LATE PREFETCHES: 0 DROPPED PREFETCHES: 0
STLB PREFETCHES SAME FILL-ORIGIN LEVEL: 0 DIFFERENT FILL-ORIGIN LEVEL: 0
STLB AVERAGE MISS LATENCY: 136.682 cycles
STLB RQ	ACCESS:     671981	FORWARD:          0	MERGED:      62681	TO_CACHE:     609300

Revised Interactions: positive negative neutral
STLB_interactions 0 0 0 -nan -nan -nan
STLB Hit, L1D data hit: 0
STLB Hit, L2C data hit: 0
STLB Hit, LLC data hit: 0
STLB Hit, LLC data miss: 0
STLB STLB hints to L2: 0
L1D TOTAL     ACCESS:   13217192  HIT:   12552352  MISS:     664840  HIT %:    94.9699  MISS %:    5.03012   MPKI: 13.2968
L1D LOAD      ACCESS:    9049393  HIT:    9032360  MISS:      17033  HIT %:    99.8118  MISS %:   0.188223   MPKI: 0.34066
L1D RFO       ACCESS:    3508871  HIT:    3508106  MISS:        765  HIT %:    99.9782  MISS %:  0.0218019   MPKI: 0.0153
L1D PREFETCH  ACCESS:     658928  HIT:      11886  MISS:     647042  HIT %:    1.80384  MISS %:    98.1962   MPKI: 12.9408
L1D PREFETCH  REQUESTED:    1320280  ISSUED:    1320280  USEFUL:     643876  USELESS:       3178
L1D USEFUL LOAD PREFETCHES:     643876 PREFETCH ISSUED TO LOWER LEVEL:     647452  ACCURACY: 99.4477
L1D TIMELY PREFETCHES:     643876 LATE PREFETCHES: 4041 DROPPED PREFETCHES: 0
L1D PREFETCHES SAME FILL-ORIGIN LEVEL: 647452 DIFFERENT FILL-ORIGIN LEVEL: 0
L1D AVERAGE MISS LATENCY: 167.679 cycles
L1D RQ	ACCESS:   17541471	FORWARD:          0	MERGED:    8472610	TO_CACHE:    9068754
L1D WQ	ACCESS:    3510268	FORWARD:        107	MERGED:          0	TO_CACHE:    3510268
L1D PQ	ACCESS:     660140	FORWARD:          0	MERGED:          0	TO_CACHE:     660140

Revised Interactions: positive negative neutral
L1D_interactions 0 0 0 -nan -nan -nan
L1D UNIQUE REGIONS ACCESSED: 0
L1D REGIONS CONFLICTS: 0
L1D Cross Page Prefetch Requests: 0
L1D Same Page Prefetch Requests: 1314758
L1D ROI Sum of L1D PQ occupancy: 8675341
L1D PREFETCHES PUSHED FROM L2C: 0
L1I TOTAL     ACCESS:    8772745  HIT:    8772745  MISS:          0  HIT %:        100  MISS %:          0   MPKI: 0
L1I LOAD      ACCESS:    8772745  HIT:    8772745  MISS:          0  HIT %:        100  MISS %:          0   MPKI: 0
L1I PREFETCH  REQUESTED:          0  ISSUED:          0  USEFUL:          0  USELESS:          0
L1I USEFUL LOAD PREFETCHES:          0 PREFETCH ISSUED TO LOWER LEVEL:          0  ACCURACY: -nan
L1I TIMELY PREFETCHES:          0 LATE PREFETCHES: 0 DROPPED PREFETCHES: 0
L1I PREFETCHES SAME FILL-ORIGIN LEVEL: 0 DIFFERENT FILL-ORIGIN LEVEL: 0
L1I AVERAGE MISS LATENCY: -nan cycles
L1I RQ	ACCESS:   11406757	FORWARD:          0	MERGED:    2634012	TO_CACHE:    8772745

Revised Interactions: positive negative neutral
L1I_interactions 0 0 0 -nan -nan -nan
BTB TOTAL     ACCESS:     877293  HIT:     877284  MISS:          9  HIT %:     99.999  MISS %: 0.00102588   MPKI: 0.00018
BTB BRANCH_DIRECT_JUMP	ACCESS:        218  HIT:        216  MISS:          2
BTB BRANCH_INDIRECT	ACCESS:          0  HIT:          0  MISS:          0
BTB BRANCH_CONDITIONAL	ACCESS:     876639  HIT:     876636  MISS:          3
BTB BRANCH_DIRECT_CALL	ACCESS:        218  HIT:        216  MISS:          2
BTB BRANCH_INDIRECT_CALL	ACCESS:          0  HIT:          0  MISS:          0
BTB BRANCH_RETURN	ACCESS:        218  HIT:        216  MISS:          2
BTB BRANCH_OTHER ACCESS:          0  HIT:          0  MISS:          0

L2C TOTAL     ACCESS:    3963754  HIT:    3523623  MISS:     440131  HIT %:    88.8961  MISS %:    11.1039   MPKI: 8.80262
L2C LOAD      ACCESS:      17033  HIT:       9499  MISS:       7534  HIT %:    55.7682  MISS %:    44.2318   MPKI: 0.15068
L2C DATA LOAD MPKI: 0.15068
L2C INSTRUCTION LOAD MPKI: 0
L2C RFO       ACCESS:        763  HIT:        761  MISS:          2  HIT %:    99.7379  MISS %:   0.262123   MPKI: 4e-05
L2C PREFETCH  ACCESS:    3499871  HIT:    3068298  MISS:     431573  HIT %:    87.6689  MISS %:    12.3311   MPKI: 8.63146
L2C DATA PREFETCH MPKI: 8.63146
L2C INSTRUCTION PREFETCH MPKI: 0
L2C WRITEBACK ACCESS:     439227  HIT:     439091  MISS:        136  HIT %:     99.969  MISS %:  0.0309635   MPKI: 0.00272
L2C LOAD TRANSLATION ACCESS:       6860  HIT:       5974  MISS:        886  HIT %:    87.0845  MISS %:    12.9155   MPKI: 0.01772
L2C PREFETCH  REQUESTED:    3304516  ISSUED:    3304387  USEFUL:       1980  USELESS:     429930
L2C USEFUL LOAD PREFETCHES:       1980 PREFETCH ISSUED TO LOWER LEVEL:     431587  ACCURACY: 0.458772
L2C TIMELY PREFETCHES:       1980 LATE PREFETCHES: 14 DROPPED PREFETCHES: 0
L2C PREFETCHES SAME FILL-ORIGIN LEVEL: 383302 DIFFERENT FILL-ORIGIN LEVEL: 0
L2C AVERAGE MISS LATENCY: 193.629 cycles
L2C RQ	ACCESS:      24656	FORWARD:          0	MERGED:          0	TO_CACHE:      24656
L2C WQ	ACCESS:     439232	FORWARD:          0	MERGED:          0	TO_CACHE:     439232
L2C PQ	ACCESS:    3951431	FORWARD:          0	MERGED:      80237	TO_CACHE:    3871194

Revised Interactions: positive negative neutral
L2C_interactions 1959 428472 670 0.454418 99.3902 0.155416
L2C Instructions Evicting Data 0
L2C Translations Evicting Data 885
L2C Data Evicting Data 438213
L2C Instructions Evicting Instructions 0
L2C Translations Evicting Instructions 0
L2C Data Evicting Instructions 0
L2C Instructions Evicting Translations 0
L2C Translations Evicting Translations 1
L2C Data Evicting Translations 896
L2C Dense regions hint from L2: 0
PSCL5 TOTAL     ACCESS:       6858  HIT:       6858  MISS:          0  HIT %:        100  MISS %:          0   MPKI: 0
PSCL5 LOAD TRANSLATION ACCESS:       6858  HIT:       6858  MISS:          0  HIT %:        100  MISS %:          0   MPKI: 0
PSCL5 PREFETCH  REQUESTED:          0  ISSUED:          0  USEFUL:          0  USELESS:          0
PSCL5 USEFUL LOAD PREFETCHES:          0 PREFETCH ISSUED TO LOWER LEVEL:          0  ACCURACY: -nan
PSCL5 TIMELY PREFETCHES:          0 LATE PREFETCHES: 0 DROPPED PREFETCHES: 0
PSCL5 PREFETCHES SAME FILL-ORIGIN LEVEL: 0 DIFFERENT FILL-ORIGIN LEVEL: 0

Revised Interactions: positive negative neutral
PSCL5_interactions 0 0 0 -nan -nan -nan
PSCL4 TOTAL     ACCESS:       6858  HIT:       6858  MISS:          0  HIT %:        100  MISS %:          0   MPKI: 0
PSCL4 LOAD TRANSLATION ACCESS:       6858  HIT:       6858  MISS:          0  HIT %:        100  MISS %:          0   MPKI: 0
PSCL4 PREFETCH  REQUESTED:          0  ISSUED:          0  USEFUL:          0  USELESS:          0
PSCL4 USEFUL LOAD PREFETCHES:          0 PREFETCH ISSUED TO LOWER LEVEL:          0  ACCURACY: -nan
PSCL4 TIMELY PREFETCHES:          0 LATE PREFETCHES: 0 DROPPED PREFETCHES: 0
PSCL4 PREFETCHES SAME FILL-ORIGIN LEVEL: 0 DIFFERENT FILL-ORIGIN LEVEL: 0

Revised Interactions: positive negative neutral
PSCL4_interactions 0 0 0 -nan -nan -nan
PSCL3 TOTAL     ACCESS:       6858  HIT:       6856  MISS:          2  HIT %:    99.9708  MISS %:   0.029163   MPKI: 4e-05
PSCL3 LOAD TRANSLATION ACCESS:       6858  HIT:       6856  MISS:          2  HIT %:    99.9708  MISS %:   0.029163   MPKI: 4e-05
PSCL3 PREFETCH  REQUESTED:          0  ISSUED:          0  USEFUL:          0  USELESS:          0
PSCL3 USEFUL LOAD PREFETCHES:          0 PREFETCH ISSUED TO LOWER LEVEL:          0  ACCURACY: -nan
PSCL3 TIMELY PREFETCHES:          0 LATE PREFETCHES: 0 DROPPED PREFETCHES: 0
PSCL3 PREFETCHES SAME FILL-ORIGIN LEVEL: 0 DIFFERENT FILL-ORIGIN LEVEL: 0

Revised Interactions: positive negative neutral
PSCL3_interactions 0 0 0 -nan -nan -nan
PSCL2 TOTAL     ACCESS:       6858  HIT:       6837  MISS:         21  HIT %:    99.6938  MISS %:   0.306212   MPKI: 0.00042
PSCL2 LOAD TRANSLATION ACCESS:       6858  HIT:       6837  MISS:         21  HIT %:    99.6938  MISS %:   0.306212   MPKI: 0.00042
PSCL2 PREFETCH  REQUESTED:          0  ISSUED:          0  USEFUL:          0  USELESS:          0
PSCL2 USEFUL LOAD PREFETCHES:          0 PREFETCH ISSUED TO LOWER LEVEL:          0  ACCURACY: -nan
PSCL2 TIMELY PREFETCHES:          0 LATE PREFETCHES: 0 DROPPED PREFETCHES: 0
PSCL2 PREFETCHES SAME FILL-ORIGIN LEVEL: 0 DIFFERENT FILL-ORIGIN LEVEL: 0

Revised Interactions: positive negative neutral
PSCL2_interactions 0 0 0 -nan -nan -nan
LLC TOTAL     ACCESS:     878192  HIT:        497  MISS:     877695  HIT %:  0.0565935  MISS %:    99.9434   MPKI: 17.5539
LLC LOAD      ACCESS:       7520  HIT:         59  MISS:       7461  HIT %:   0.784574  MISS %:    99.2154   MPKI: 0.14922
LLC RFO       ACCESS:          2  HIT:          2  MISS:          0  HIT %:        100  MISS %:          0   MPKI: 0
LLC PREFETCH  ACCESS:     431587  HIT:        421  MISS:     431166  HIT %:   0.097547  MISS %:    99.9025   MPKI: 8.62332
LLC WRITEBACK ACCESS:     438197  HIT:          9  MISS:     438188  HIT %: 0.00205387  MISS %:    99.9979   MPKI: 8.76376
LLC LOAD TRANSLATION ACCESS:        886  HIT:          6  MISS:        880  HIT %:   0.677201  MISS %:    99.3228   MPKI: 0.0176
LLC PREFETCH  REQUESTED:          0  ISSUED:          0  USEFUL:         23  USELESS:        272
LLC USEFUL LOAD PREFETCHES:         23 PREFETCH ISSUED TO LOWER LEVEL:     431166  ACCURACY: 0.00533437
LLC TIMELY PREFETCHES:         23 LATE PREFETCHES: 0 DROPPED PREFETCHES: 0
LLC PREFETCHES SAME FILL-ORIGIN LEVEL: 0 DIFFERENT FILL-ORIGIN LEVEL: 0
LLC AVERAGE MISS LATENCY: 82.0557 cycles
LLC RQ	ACCESS:       8408	FORWARD:          0	MERGED:          0	TO_CACHE:       8408
LLC WQ	ACCESS:     438203	FORWARD:          0	MERGED:          0	TO_CACHE:     438203
LLC PQ	ACCESS:     431587	FORWARD:          0	MERGED:          0	TO_CACHE:     431587

Revised Interactions: positive negative neutral
LLC_interactions 0 0 0 -nan -nan -nan
LLC Dense regions hint to LLC: 0

RAW hits: 787
Loads Generated: 17542256
Loads sent to L1D: 17541471
Stores Generated: 3510262
Stores sent to L1D: 3510268
Major fault: 0 Minor fault: 13844
Allocated PAGES: 13844

stream: 
stream:times selected: 3384702
stream:pref_filled: 1264172
stream:pref_useful: 1258372
stream:pref_late: 4305
stream:misses: 267
stream:misses_by_poll: 0

CS: 
CS:times selected: 2999309
CS:pref_filled: 10507
CS:pref_useful: 10225
CS:pref_late: 1
CS:misses: 45505
CS:misses_by_poll: 11

CPLX: 
CPLX:times selected: 385300
CPLX:pref_filled: 20143
CPLX:pref_useful: 19922
CPLX:pref_late: 0
CPLX:misses: 2932
CPLX:misses_by_poll: 10

NL_L1: 
NL:times selected: 30
NL:pref_filled: 2
NL:pref_useful: 2
NL:pref_late: 0
NL:misses: 2
NL:misses_by_poll: 0

total selections: 6769341
total_filled: 647042
total_useful: 643876
total_late: 4311
total_polluted: 21
total_misses_after_warmup: 36395
conflicts: 488
Degree Incremented Times: 183604
Degree Decremented Times: 0

L1 IP Table Write Accesses: 9066951
L1 IP Table Read Accesses: 9066463
L1 RST Write Accesses: 1492501
L1 RST Read Accesses: 2985002
L1 CSPT Write Accesses: 1492501
L1 CSPT Read Accesses: 1765491
L1 RR Filter Tag Write Accesses: 660140
L1 RR Filter Tag Read Accesses: 335934130
L1 IP Table Tag Write Accesses: 9068755
L1 IP Table Tag Read Accesses: 9068755
L1 RST Tag Write Accesses: 0
L1 RST Tag Read Accesses: 13461422
L1 RR Filter Write Accesses: 0
L1 RR Filter Read Accesses: 12757087
test: 80740
L2 IP Table Read Accesses: 1181899
L2 IP Table Write Accesses: 1165402
L2 IP Table Tag Read Accesses: 591244
L2 IP Table Tag Write Accesses: 591244

DRAM Statistics
 CHANNEL 0
 RQ ROW_BUFFER_HIT:      54800  ROW_BUFFER_MISS:     384707
 DBUS_CONGESTED:        302
 WQ ROW_BUFFER_HIT:     288405  ROW_BUFFER_MISS:     149864  FULL:        261

 AVG_CONGESTED_CYCLE: 7
 All warmup complete: 2
Channel 0 Bank busy for read cycles: 0
Channel 0 Bank busy for write cycles: 0
Channel 0
Rank 0
0banks busy for read cycles: 5768417
0banks busy for write cycles: 7557
1banks busy for read cycles: 21115857
1banks busy for write cycles: 358023
2banks busy for read cycles: 11375297
2banks busy for write cycles: 207775
3banks busy for read cycles: 816421
3banks busy for write cycles: 219125
4banks busy for read cycles: 345702
4banks busy for write cycles: 291410
5banks busy for read cycles: 156724
5banks busy for write cycles: 364665
6banks busy for read cycles: 133890
6banks busy for write cycles: 312096
7banks busy for read cycles: 1180275
7banks busy for write cycles: 1137381
8banks busy for read cycles: 362844
8banks busy for write cycles: 5746897

CPU 0 Branch Prediction Accuracy: 99.9751% MPKI: 0.00438 Average ROB Occupancy at Mispredict: 50.9406
Branch types
NOT_BRANCH: 49121848 98.2437%
BRANCH_DIRECT_JUMP: 218 0.000436%
BRANCH_INDIRECT: 0 0%
BRANCH_CONDITIONAL: 877403 1.75481%
BRANCH_DIRECT_CALL: 218 0.000436%
BRANCH_INDIRECT_CALL: 0 0%
BRANCH_RETURN: 218 0.000436%
BRANCH_OTHER: 0 0%

@sumon_overall_L1D    643876      4041      4041      3178    647042   1320280   1320280
@Sumon_Early_by_class_L1D    641298      1156      1392         0
@Sumon_Late_by_class_L1D      4034         0         0         0

@Sumon_Early_by_cycle_L1D     10194     21286     31799    376063      4257    200272         5         0         0         0         0         0
@Sumon_Late_by_cycle_L1D         7         3         0         0      4028         0
@Sumon_Early_stream_L1D     10170     20553     31471    375577      3688    199839         0         0         0         0         0         0
@Sumon_Early_CS_L1D         4       582       285       157        54        74         0         0         0         0         0         0
@Sumon_Early_CPLX_L1D         2       142        41       328       515       359         5         0         0         0         0         0
@Sumon_Late_stream_L1D         7         3         0         0      4024         0
@Sumon_Late_CS_L1D         0         0         0         0         0         0
@Sumon_Late_CPLX_L1D         0         0         0         0         0         0
@sumon_overall_L2C      1980        14         0    429930    431573   3304387   3304516
@Sumon_Early_by_class_L2C      1978         0         0         0
@Sumon_Late_by_class_L2C        14         0         0         0

@Sumon_Early_by_cycle_L2C        15        43       716        93        40       238         0         0         0         0         0       835
@Sumon_Late_by_cycle_L2C         0         0         0         0        14         0
@Sumon_Early_stream_L2C        15        43       716        93        40       238         0         0         0         0         0       833
@Sumon_Early_CS_L2C         0         0         0         0         0         0         0         0         0         0         0         0
@Sumon_Early_CPLX_L2C         0         0         0         0         0         0         0         0         0         0         0         0
@Sumon_Late_stream_L2C         0         0         0         0        14         0
@Sumon_Late_CS_L2C         0         0         0         0         0         0
@Sumon_Late_CPLX_L2C         0         0         0         0         0         0
DRAM PAGES: 1048576
Allocated PAGES: 13844
