
*** ChampSim Multicore Out-of-Order Simulator ***

Warmup Instructions: 50000000
Simulation Instructions: 50000000
Number of CPUs: 1
LLC sets: 2048
LLC ways: 16
Off-chip DRAM Size: 4096 MB Channels: 1 Width: 64-bit Data Rate: 6400 MT/s
CPU 0 runs ../../biswa/SPEC2017Traces/654.roms_s-1007B.champsimtrace.xz
.xz
CPU 0 Bimodal branch predictor
BTB has LRU replacement policy
ITLB has LRU replacement policy
DTLB has LRU replacement policy
STLB has LRU replacement policy
L1I has LRU replacement policy
IP Table Entries: 256
L1D has LRU replacement policy
IP_Table L2 entries: 256
Initialize DRRIP state for L2C
epoch: 1000
next table: 1611
cur table: 4187
epoch: 1000
next table: 1528
cur table: 1611
epoch: 1000
next table: 1477
cur table: 1528
epoch: 1000
next table: 1461
cur table: 1477
epoch: 1000
next table: 1432
cur table: 1461
Heartbeat CPU 0 instructions: 10000000 cycles: 3015935 heartbeat IPC: 3.31572 cumulative IPC: 3.31572 (Simulation time: 0 hr 4 min 51 sec) 
epoch: 1000
next table: 1484
cur table: 1432
epoch: 1000
next table: 1488
cur table: 1484
epoch: 1000
next table: 1457
cur table: 1488
epoch: 1000
next table: 1418
cur table: 1457
epoch: 1000
next table: 1396
cur table: 1418
epoch: 1000
next table: 1391
cur table: 1396
epoch: 1000
next table: 1405
cur table: 1391
epoch: 1000
next table: 1379
cur table: 1405
epoch: 1000
next table: 1406
cur table: 1379
epoch: 1000
next table: 1389
cur table: 1406
epoch: 1000
next table: 1392
cur table: 1389
epoch: 1000
next table: 1410
cur table: 1392
epoch: 1000
next table: 1395
cur table: 1410
epoch: 1000
next table: 1410
cur table: 1395
Heartbeat CPU 0 instructions: 20000002 cycles: 6031695 heartbeat IPC: 3.31591 cumulative IPC: 3.31582 (Simulation time: 0 hr 9 min 22 sec) 
epoch: 1000
next table: 1396
cur table: 1410
epoch: 1000
next table: 1415
cur table: 1396
epoch: 1000
next table: 1396
cur table: 1415
epoch: 1000
next table: 1406
cur table: 1396
epoch: 1000
next table: 1945
cur table: 12694
epoch: 1000
next table: 1403
cur table: 1406
epoch: 1000
next table: 1487
cur table: 1945
epoch: 1000
next table: 1458
cur table: 1403
epoch: 1000
next table: 1472
cur table: 1487
epoch: 1000
next table: 1403
cur table: 1458
epoch: 1000
next table: 1448
cur table: 1472
epoch: 1000
next table: 1416
cur table: 1403
epoch: 1000
next table: 1411
cur table: 1416
epoch: 1000
next table: 1500
cur table: 1448
epoch: 1000
next table: 1428
cur table: 1411
epoch: 1000
next table: 1510
cur table: 1500
epoch: 1000
next table: 1418
cur table: 1428
epoch: 1000
next table: 1447
cur table: 1510
epoch: 1000
next table: 1407
cur table: 1418
epoch: 1000
next table: 1450
cur table: 1447
epoch: 1000
next table: 1405
cur table: 1407
epoch: 1000
next table: 1425
cur table: 1405
epoch: 1000
next table: 1513
cur table: 1450
Heartbeat CPU 0 instructions: 30000000 cycles: 9047571 heartbeat IPC: 3.31579 cumulative IPC: 3.31581 (Simulation time: 0 hr 13 min 23 sec) 
epoch: 1000
next table: 1406
cur table: 1425
epoch: 1000
next table: 1476
cur table: 1513
epoch: 1000
next table: 1406
cur table: 1406
epoch: 1000
next table: 1455
cur table: 1476
epoch: 1000
next table: 1440
cur table: 1406
epoch: 1000
next table: 1440
cur table: 1455
epoch: 1000
next table: 1409
cur table: 1440
epoch: 1000
next table: 1411
cur table: 1440
epoch: 1000
next table: 1408
cur table: 1409
epoch: 1000
next table: 1406
cur table: 1411
epoch: 1000
next table: 1396
cur table: 1408
epoch: 1000
next table: 1385
cur table: 1406
epoch: 1000
next table: 1407
cur table: 1396
epoch: 1000
next table: 1366
cur table: 1385
epoch: 1000
next table: 1380
cur table: 1407
epoch: 1000
next table: 1394
cur table: 1366
epoch: 1000
next table: 1401
cur table: 1380
epoch: 1000
next table: 1369
cur table: 1394
epoch: 1000
next table: 1394
cur table: 1401
epoch: 1000
next table: 1380
cur table: 1369
epoch: 1000
next table: 1393
cur table: 1394
epoch: 1000
next table: 1400
cur table: 1380
epoch: 1000
next table: 1408
cur table: 1393
epoch: 1000
next table: 1372
cur table: 1400
epoch: 1000
next table: 1397
cur table: 1408
epoch: 1000
next table: 1378
cur table: 1372
epoch: 1000
next table: 1427
cur table: 1397
epoch: 1000
next table: 1399
cur table: 1378
epoch: 1000
next table: 1395
cur table: 1427
Heartbeat CPU 0 instructions: 40000000 cycles: 12063362 heartbeat IPC: 3.31588 cumulative IPC: 3.31583 (Simulation time: 0 hr 17 min 1 sec) 
epoch: 1000
next table: 1377
cur table: 1399
epoch: 1000
next table: 1396
cur table: 1395
epoch: 1000
next table: 1501
cur table: 1377
epoch: 1000
next table: 1394
cur table: 1396
epoch: 1000
next table: 1401
cur table: 1394
epoch: 1000
next table: 1608
cur table: 1501
epoch: 1000
next table: 1421
cur table: 1401
epoch: 1000
next table: 1418
cur table: 1421
epoch: 1000
next table: 1649
cur table: 1608
epoch: 1000
next table: 1406
cur table: 1418
epoch: 1000
next table: 1413
cur table: 1649
epoch: 1000
next table: 1342
cur table: 1406
epoch: 1000
next table: 1343
cur table: 1413
epoch: 1000
next table: 1359
cur table: 1342
epoch: 1000
next table: 1322
cur table: 1343
epoch: 1000
next table: 1343
cur table: 1359
epoch: 1000
next table: 1343
cur table: 1322
epoch: 1000
next table: 1351
cur table: 1343
epoch: 1000
next table: 1324
cur table: 1343
epoch: 1000
next table: 1363
cur table: 1351
epoch: 1000
next table: 1331
cur table: 1324
epoch: 1000
next table: 1339
cur table: 1363
epoch: 1000
next table: 1346
cur table: 1331
epoch: 1000
next table: 1354
cur table: 1339
epoch: 1000
next table: 1322
cur table: 1346
epoch: 1000
next table: 1358
cur table: 1354
epoch: 1000
next table: 1341
cur table: 1322
epoch: 1000
next table: 1341
cur table: 1358
epoch: 1000
next table: 1334
cur table: 1341
epoch: 1000
next table: 1356
cur table: 1341
epoch: 1000
next table: 1322
cur table: 1334
epoch: 1000
next table: 1345
cur table: 1356
epoch: 1000
next table: 1340
cur table: 1322
epoch: 1000
next table: 1351
cur table: 1345
epoch: 1000
next table: 1325
cur table: 1340
epoch: 1000
next table: 1365
cur table: 1351
epoch: 1000
next table: 1339
cur table: 1325
epoch: 1000
next table: 1338
cur table: 1365
epoch: 1000
next table: 1339
cur table: 1339
epoch: 1000
next table: 1358
cur table: 1338
epoch: 1000
next table: 1321
cur table: 1339
epoch: 1000
next table: 1354
cur table: 1358
epoch: 1000
next table: 1344
cur table: 1321
epoch: 1000
next table: 1339
cur table: 1354
epoch: 1000
next table: 1333
cur table: 1344
epoch: 1000
next table: 1357
cur table: 1339
epoch: 1000
next table: 1324
cur table: 1333
epoch: 1000
next table: 1345
cur table: 1357
epoch: 1000
next table: 1337
cur table: 1324
epoch: 1000
next table: 1356
cur table: 1345
epoch: 1000
next table: 1328
cur table: 1337
epoch: 1000
next table: 1358
cur table: 1356
epoch: 1000
next table: 1341
cur table: 1328
epoch: 1000
next table: 1335
cur table: 1358
epoch: 1000
next table: 1336
cur table: 1341
epoch: 1000
next table: 1359
cur table: 1335
epoch: 1000
next table: 1320
cur table: 1336
epoch: 1000
next table: 1350
cur table: 1359
epoch: 1000
next table: 1340
cur table: 1320
epoch: 1000
next table: 1349
cur table: 1350
epoch: 1000
next table: 1332
cur table: 1340
epoch: 1000
next table: 1352
cur table: 1349
epoch: 1000
next table: 1334
cur table: 1332
epoch: 1000
next table: 1343
cur table: 1352
epoch: 1000
next table: 1331
cur table: 1334
epoch: 1000
next table: 1357
cur table: 1343
epoch: 1000
next table: 1330
cur table: 1331
epoch: 1000
next table: 1359
cur table: 1357
epoch: 1000
next table: 1339
cur table: 1330
epoch: 1000
next table: 1345
cur table: 1359
epoch: 1000
next table: 1337
cur table: 1339
epoch: 1000
next table: 1354
cur table: 1345
epoch: 1000
next table: 1331
cur table: 1337
epoch: 1000
next table: 1346
cur table: 1354
epoch: 1000
next table: 1335
cur table: 1331
epoch: 1000
next table: 1354
cur table: 1346
epoch: 1000
next table: 1331
cur table: 1335
epoch: 1000
next table: 1355
cur table: 1354
epoch: 1000
next table: 1335
cur table: 1331
epoch: 1000
next table: 1346
cur table: 1355
epoch: 1000
next table: 1335
cur table: 1335
epoch: 1000
next table: 1360
cur table: 1346
epoch: 1000
next table: 1331
cur table: 1335
epoch: 1000
next table: 1353
cur table: 1360
epoch: 1000
next table: 1332
cur table: 1331
epoch: 1000
next table: 1350
cur table: 1353
epoch: 1000
next table: 1334
cur table: 1332
epoch: 1000
next table: 1359
cur table: 1350
epoch: 1000
next table: 1332
cur table: 1334
epoch: 1000
next table: 1355
cur table: 1359
epoch: 1000
next table: 1328
cur table: 1332
epoch: 1000
next table: 1344
cur table: 1355
epoch: 1000
next table: 1341
cur table: 1328
epoch: 1000
next table: 1362
cur table: 1344
epoch: 1000
next table: 1326
cur table: 1341
epoch: 1000
next table: 1346
cur table: 1362
epoch: 1000
next table: 1343
cur table: 1326
epoch: 1000
next table: 1367
cur table: 1346
epoch: 1000
next table: 1333
cur table: 1343
epoch: 1000
next table: 1368
cur table: 1367
epoch: 1000
next table: 1340
cur table: 1333
epoch: 1000
next table: 1354
cur table: 1368
epoch: 1000
next table: 1350
cur table: 1340
epoch: 1000
next table: 1370
cur table: 1354
epoch: 1000
next table: 1334
cur table: 1350
epoch: 1000
next table: 1374
cur table: 1370
epoch: 1000
next table: 1350
cur table: 1334
epoch: 1000
next table: 1351
cur table: 1374
epoch: 1000
next table: 1351
cur table: 1350
epoch: 1000
next table: 1371
cur table: 1351
epoch: 1000
next table: 1347
cur table: 1351
epoch: 1000
next table: 1370
cur table: 1371
epoch: 1000
next table: 1346
cur table: 1347
epoch: 1000
next table: 1355
cur table: 1370
epoch: 1000
next table: 1342
cur table: 1346
epoch: 1000
next table: 1356
cur table: 1355
epoch: 1000
next table: 1339
cur table: 1342
epoch: 1000
next table: 1356
cur table: 1356
epoch: 1000
next table: 1327
cur table: 1339
epoch: 1000
next table: 1343
cur table: 1356
epoch: 1000
next table: 1340
cur table: 1327
epoch: 1000
next table: 1356
cur table: 1343
epoch: 1000
next table: 1326
cur table: 1340
epoch: 1000
next table: 1356
cur table: 1356
epoch: 1000
next table: 1335
cur table: 1326
epoch: 1000
next table: 1343
cur table: 1356
epoch: 1000
next table: 1341
cur table: 1335
epoch: 1000
next table: 1361
cur table: 1343
epoch: 1000
next table: 1322
cur table: 1341
epoch: 1000
next table: 1342
cur table: 1361
epoch: 1000
next table: 1346
cur table: 1322
epoch: 1000
next table: 1347
cur table: 1342
epoch: 1000
next table: 1377
cur table: 1346
epoch: 1000
next table: 1358
cur table: 1347
epoch: 1000
next table: 1377
cur table: 1377
epoch: 1000
next table: 1341
cur table: 1358
epoch: 1000
next table: 1358
cur table: 1341
epoch: 1000
next table: 1742
cur table: 1377
epoch: 1000
next table: 1347
cur table: 1358
epoch: 1000
next table: 1345
cur table: 1347
epoch: 1000
next table: 1354
cur table: 1345
epoch: 1000
next table: 1345
cur table: 1354
epoch: 1000
next table: 1361
cur table: 1345
epoch: 1000
next table: 1352
cur table: 1361
epoch: 1000
next table: 1338
cur table: 1352
epoch: 1000
next table: 1357
cur table: 1338
epoch: 1000
next table: 3722
cur table: 1742
epoch: 1000
next table: 1353
cur table: 1357
epoch: 1000
next table: 1352
cur table: 1353
epoch: 1000
next table: 1346
cur table: 1352
epoch: 1000
next table: 1346
cur table: 1346
epoch: 1000
next table: 1356
cur table: 1346
epoch: 1000
next table: 1360
cur table: 1356
epoch: 1000
next table: 1343
cur table: 1360
epoch: 1000
next table: 1353
cur table: 1343
epoch: 1000
next table: 1349
cur table: 1353
epoch: 1000
next table: 3809
cur table: 3722
epoch: 1000
next table: 1351
cur table: 1349
epoch: 1000
next table: 1354
cur table: 1351
epoch: 1000
next table: 1344
cur table: 1354
epoch: 1000
next table: 1355
cur table: 1344
epoch: 1000
next table: 1357
cur table: 1355
epoch: 1000
next table: 1346
cur table: 1357
epoch: 1000
next table: 1358
cur table: 1346
epoch: 1000
next table: 1347
cur table: 1358
epoch: 1000
next table: 3808
cur table: 3809
epoch: 1000
next table: 1356
cur table: 1347
epoch: 1000
next table: 1360
cur table: 1356
epoch: 1000
next table: 1347
cur table: 1360
epoch: 1000
next table: 1358
cur table: 1347
epoch: 1000
next table: 1351
cur table: 1358
epoch: 1000
next table: 1350
cur table: 1351
epoch: 1000
next table: 1363
cur table: 1350
epoch: 1000
next table: 1369
cur table: 1363
epoch: 1000
next table: 1354
cur table: 1369
epoch: 1000
next table: 3819
cur table: 3808
epoch: 1000
next table: 1367
cur table: 1354
epoch: 1000
next table: 1365
cur table: 1367
epoch: 1000
next table: 1359
cur table: 1365
epoch: 1000
next table: 1373
cur table: 1359
epoch: 1000
next table: 1369
cur table: 1373
epoch: 1000
next table: 1357
cur table: 1369
epoch: 1000
next table: 1364
cur table: 1357
epoch: 1000
next table: 1363
cur table: 1364
epoch: 1000
next table: 1338
cur table: 1363
epoch: 1000
next table: 1353
cur table: 1338
epoch: 1000
next table: 1357
cur table: 1353
epoch: 1000
next table: 1344
cur table: 1357
epoch: 1000
next table: 1356
cur table: 1344
epoch: 1000
next table: 1343
cur table: 1356
epoch: 1000
next table: 1356
cur table: 1343
epoch: 1000
next table: 1360
cur table: 1356
epoch: 1000
next table: 1338
cur table: 1360
epoch: 1000
next table: 1360
cur table: 1338
epoch: 1000
next table: 1347
cur table: 1360
epoch: 1000
next table: 1347
cur table: 1347
epoch: 1000
next table: 1356
cur table: 1347
epoch: 1000
next table: 1345
cur table: 1356
epoch: 1000
next table: 1357
cur table: 1345
epoch: 1000
next table: 1354
cur table: 1357
epoch: 1000
next table: 1341
cur table: 1354
epoch: 1000
next table: 1357
cur table: 1341
epoch: 1000
next table: 1348
cur table: 1357
epoch: 1000
next table: 1357
cur table: 1348
epoch: 1000
next table: 1348
cur table: 1357
epoch: 1000
next table: 1345
cur table: 1348
epoch: 1000
next table: 1356
cur table: 1345
epoch: 1000
next table: 1355
cur table: 1356
epoch: 1000
next table: 1350
cur table: 1355
epoch: 1000
next table: 1344
cur table: 1350
epoch: 1000
next table: 1345
cur table: 1344
epoch: 1000
next table: 1356
cur table: 1345
epoch: 1000
next table: 1361
cur table: 1356
epoch: 1000
next table: 1346
cur table: 1361
epoch: 1000
next table: 1350
cur table: 1346
epoch: 1000
next table: 1353
cur table: 1350
epoch: 1000
next table: 1344
cur table: 1353
epoch: 1000
next table: 1354
cur table: 1344
epoch: 1000
next table: 1352
cur table: 1354
epoch: 1000
next table: 1353
cur table: 1352
epoch: 1000
next table: 1362
cur table: 1353
epoch: 1000
next table: 1344
cur table: 1362
epoch: 1000
next table: 1360
cur table: 1344
epoch: 1000
next table: 1356
cur table: 1360
epoch: 1000
next table: 1346
cur table: 1356
epoch: 1000
next table: 1358
cur table: 1346
epoch: 1000
next table: 1356
cur table: 1358
epoch: 1000
next table: 1365
cur table: 1356
epoch: 1000
next table: 1369
cur table: 1365
epoch: 1000
next table: 1351
cur table: 1369
epoch: 1000
next table: 1369
cur table: 1351
epoch: 1000
next table: 1368
cur table: 1369
epoch: 1000
next table: 1364
cur table: 1368
epoch: 1000
next table: 1366
cur table: 1364
epoch: 1000
next table: 1370
cur table: 1366
epoch: 1000
next table: 1361
cur table: 1370
epoch: 1000
next table: 1345
cur table: 1361
epoch: 1000
next table: 1357
cur table: 1345
epoch: 1000
next table: 1348
cur table: 1357
epoch: 1000
next table: 1350
cur table: 1348
epoch: 1000
next table: 1361
cur table: 1350
epoch: 1000
next table: 1338
cur table: 1361
epoch: 1000
next table: 1355
cur table: 1338
epoch: 1000
next table: 1358
cur table: 1355
epoch: 1000
next table: 1342
cur table: 1358
epoch: 1000
next table: 1357
cur table: 1342
epoch: 1000
next table: 1343
cur table: 1357
epoch: 1000
next table: 1353
cur table: 1343
epoch: 1000
next table: 1364
cur table: 1353
epoch: 1000
next table: 1338
cur table: 1364
epoch: 1000
next table: 1358
cur table: 1338
epoch: 1000
next table: 1350
cur table: 1358
epoch: 1000
next table: 1344
cur table: 1350
epoch: 1000
next table: 1355
cur table: 1344
epoch: 1000
next table: 27153
cur table: 3819
epoch: 1000
next table: 1345
cur table: 1355
epoch: 1000
next table: 1357
cur table: 1345
epoch: 1000
next table: 1355
cur table: 1357
epoch: 1000
next table: 1341
cur table: 1355
epoch: 1000
next table: 1357
cur table: 1341
epoch: 1000
next table: 1355
cur table: 1357
epoch: 1000
next table: 1345
cur table: 1355
epoch: 1000
next table: 1351
cur table: 1345
epoch: 1000
next table: 1345
cur table: 1351
epoch: 1000
next table: 1357
cur table: 1345
epoch: 1000
next table: 1360
cur table: 1357
epoch: 1000
next table: 1345
cur table: 1360
epoch: 1000
next table: 1351
cur table: 1345
epoch: 1000
next table: 1352
cur table: 1351
epoch: 1000
next table: 1350
cur table: 1352
epoch: 1000
next table: 1353
cur table: 1350
epoch: 1000
next table: 1354
cur table: 1353
epoch: 1000
next table: 1348
cur table: 1354
epoch: 1000
next table: 1363
cur table: 1348
epoch: 1000
next table: 1345
cur table: 1363
epoch: 1000
next table: 1359
cur table: 1345
epoch: 1000
next table: 1350
cur table: 1359
epoch: 1000
next table: 1352
cur table: 1350
epoch: 1000
next table: 1357
cur table: 1352
epoch: 1000
next table: 1348
cur table: 1357
epoch: 1000
next table: 1365
cur table: 1348
epoch: 1000
next table: 1372
cur table: 1365
epoch: 1000
next table: 1350
cur table: 1372
epoch: 1000
next table: 1370
cur table: 1350
epoch: 1000
next table: 1370
cur table: 1370
epoch: 1000
next table: 1354
cur table: 1370
epoch: 1000
next table: 1372
cur table: 1354
epoch: 1000
next table: 1370
cur table: 1372
epoch: 1000
next table: 1360
cur table: 1370
epoch: 1000
next table: 1356
cur table: 1360
epoch: 1000
next table: 1361
cur table: 1356
epoch: 1000
next table: 1340
cur table: 1361
epoch: 1000
next table: 1353
cur table: 1340
epoch: 1000
next table: 1363
cur table: 1353
epoch: 1000
next table: 1337
cur table: 1363
epoch: 1000
next table: 1357
cur table: 1337
epoch: 1000
next table: 1357
cur table: 1357
epoch: 1000
next table: 1341
cur table: 1357
epoch: 1000
next table: 1356
cur table: 1341
epoch: 1000
next table: 1342
cur table: 1356
epoch: 1000
next table: 1357
cur table: 1342
epoch: 1000
next table: 1354
cur table: 1357
epoch: 1000
next table: 1342
cur table: 1354
epoch: 1000
next table: 1357
cur table: 1342
epoch: 1000
next table: 1347
cur table: 1357
epoch: 1000
next table: 1349
cur table: 1347
epoch: 1000
next table: 1355
cur table: 1349
epoch: 1000
next table: 1345
cur table: 1355
epoch: 1000
next table: 1357
cur table: 1345
Heartbeat CPU 0 instructions: 50000003 cycles: 15186282 heartbeat IPC: 3.20213 cumulative IPC: 3.29245 (Simulation time: 0 hr 21 min 10 sec) 

Warmup complete CPU 0 instructions: 50000003 cycles: 15186282 (Simulation time: 0 hr 21 min 10 sec) 

epoch: 1000
next table: 1348
cur table: 1357
epoch: 1000
next table: 1372
cur table: 1348
epoch: 1000
next table: 1356
cur table: 1372
epoch: 1000
next table: 1342
cur table: 1356
epoch: 1000
next table: 1359
cur table: 1342
epoch: 1000
next table: 1356
cur table: 1359
epoch: 1000
next table: 1346
cur table: 1356
epoch: 1000
next table: 1359
cur table: 1346
epoch: 1000
next table: 1352
cur table: 1359
epoch: 1000
next table: 1353
cur table: 1352
epoch: 1000
next table: 1683
cur table: 1353
epoch: 1000
next table: 1342
cur table: 1683
epoch: 1000
next table: 1354
cur table: 1342
epoch: 1000
next table: 1355
cur table: 1354
epoch: 1000
next table: 1402
cur table: 1355
epoch: 1000
next table: 1359
cur table: 1402
epoch: 1000
next table: 1474
cur table: 1359
epoch: 1000
next table: 1355
cur table: 1474
epoch: 1000
next table: 1365
cur table: 1355
epoch: 1000
next table: 1342
cur table: 1365
epoch: 1000
next table: 1419
cur table: 1342
epoch: 1000
next table: 1379
cur table: 1419
epoch: 1000
next table: 1358
cur table: 1379
epoch: 1000
next table: 1369
cur table: 1358
epoch: 1000
next table: 1526
cur table: 1369
epoch: 1000
next table: 1537
cur table: 1526
epoch: 1000
next table: 1371
cur table: 1537
epoch: 1000
next table: 1355
cur table: 1371
epoch: 1000
next table: 1449
cur table: 1355
epoch: 1000
next table: 1464
cur table: 1449
epoch: 1000
next table: 1370
cur table: 1464
epoch: 1000
next table: 1358
cur table: 1370
epoch: 1000
next table: 1454
cur table: 1358
epoch: 1000
next table: 1412
cur table: 1454
epoch: 1000
next table: 1345
cur table: 1412
epoch: 1000
next table: 1357
cur table: 1345
epoch: 1000
next table: 1340
cur table: 1357
epoch: 1000
next table: 1358
cur table: 1340
epoch: 1000
next table: 1358
cur table: 1358
epoch: 1000
next table: 1341
cur table: 1358
epoch: 1000
next table: 1356
cur table: 1341
epoch: 1000
next table: 1354
cur table: 1356
epoch: 1000
next table: 1344
cur table: 1354
epoch: 1000
next table: 1494
cur table: 1344
epoch: 1000
next table: 1347
cur table: 1494
epoch: 1000
next table: 1356
cur table: 1347
epoch: 1000
next table: 1361
cur table: 1356
epoch: 1000
next table: 1360
cur table: 1361
epoch: 1000
next table: 1356
cur table: 1360
epoch: 1000
next table: 1345
cur table: 1356
epoch: 1000
next table: 1353
cur table: 1345
epoch: 1000
next table: 1371
cur table: 1353
epoch: 1000
next table: 1339
cur table: 1371
epoch: 1000
next table: 1359
cur table: 1339
epoch: 1000
next table: 1392
cur table: 1359
epoch: 1000
next table: 1345
cur table: 1392
epoch: 1000
next table: 1355
cur table: 1345
epoch: 1000
next table: 1344
cur table: 1355
epoch: 1000
next table: 1546
cur table: 1344
epoch: 1000
next table: 1366
cur table: 1546
epoch: 1000
next table: 1345
cur table: 1366
epoch: 1000
next table: 1359
cur table: 1345
epoch: 1000
next table: 1352
cur table: 1359
epoch: 1000
next table: 1349
cur table: 1352
epoch: 1000
next table: 1371
cur table: 1349
epoch: 1000
next table: 1349
cur table: 1371
epoch: 1000
next table: 1355
cur table: 1349
epoch: 1000
next table: 1360
cur table: 1355
epoch: 1000
next table: 1344
cur table: 1360
epoch: 1000
next table: 1359
cur table: 1344
epoch: 1000
next table: 1405
cur table: 1359
epoch: 1000
next table: 1346
cur table: 1405
epoch: 1000
next table: 1355
cur table: 1346
epoch: 1000
next table: 1351
cur table: 1355
epoch: 1000
next table: 1354
cur table: 1351
epoch: 1000
next table: 1365
cur table: 1354
epoch: 1000
next table: 1349
cur table: 1365
epoch: 1000
next table: 1373
cur table: 1349
epoch: 1000
next table: 1371
cur table: 1373
epoch: 1000
next table: 1354
cur table: 1371
epoch: 1000
next table: 1551
cur table: 1354
epoch: 1000
next table: 1373
cur table: 1551
epoch: 1000
next table: 1356
cur table: 1373
epoch: 1000
next table: 1369
cur table: 1356
epoch: 1000
next table: 1428
cur table: 1369
epoch: 1000
next table: 1369
cur table: 1428
epoch: 1000
next table: 1354
cur table: 1369
epoch: 1000
next table: 1351
cur table: 1354
epoch: 1000
next table: 1513
cur table: 30593
epoch: 1000
next table: 1350
cur table: 1351
epoch: 1000
next table: 1341
cur table: 1350
epoch: 1000
next table: 1507
cur table: 1513
epoch: 1000
next table: 1350
cur table: 1341
epoch: 1000
next table: 1513
cur table: 1507
epoch: 1000
next table: 1349
cur table: 1350
epoch: 1000
next table: 1350
cur table: 1349
epoch: 1000
next table: 1509
cur table: 1513
epoch: 1000
next table: 1353
cur table: 1350
epoch: 1000
next table: 1534
cur table: 1509
epoch: 1000
next table: 1362
cur table: 1353
epoch: 1000
next table: 1366
cur table: 1362
epoch: 1000
next table: 1543
cur table: 1534
epoch: 1000
next table: 1361
cur table: 1366
epoch: 1000
next table: 1513
cur table: 1543
epoch: 1000
next table: 1364
cur table: 1361
epoch: 1000
next table: 1367
cur table: 1364
epoch: 1000
next table: 1518
cur table: 1513
epoch: 1000
next table: 1352
cur table: 1367
epoch: 1000
next table: 1504
cur table: 1518
epoch: 1000
next table: 1338
cur table: 1352
epoch: 1000
next table: 1350
cur table: 1338
epoch: 1000
next table: 1509
cur table: 1504
epoch: 1000
next table: 1345
cur table: 1350
epoch: 1000
next table: 1512
cur table: 1509
epoch: 1000
next table: 1349
cur table: 1345
epoch: 1000
next table: 1350
cur table: 1349
epoch: 1000
next table: 1510
cur table: 1512
epoch: 1000
next table: 1350
cur table: 1350
epoch: 1000
next table: 1352
cur table: 1350
epoch: 1000
next table: 1516
cur table: 1510
epoch: 1000
next table: 1351
cur table: 1352
epoch: 1000
next table: 1506
cur table: 1516
epoch: 1000
next table: 1344
cur table: 1351
epoch: 1000
next table: 1345
cur table: 1344
epoch: 1000
next table: 1510
cur table: 1506
epoch: 1000
next table: 1347
cur table: 1345
epoch: 1000
next table: 1511
cur table: 1510
epoch: 1000
next table: 1343
cur table: 1347
epoch: 1000
next table: 1354
cur table: 1343
epoch: 1000
next table: 1530
cur table: 1511
epoch: 1000
next table: 1364
cur table: 1354
epoch: 1000
next table: 1540
cur table: 1530
epoch: 1000
next table: 1369
cur table: 1364
epoch: 1000
next table: 1370
cur table: 1369
epoch: 1000
next table: 1534
cur table: 1540
epoch: 1000
next table: 1358
cur table: 1370
epoch: 1000
next table: 1507
cur table: 1534
epoch: 1000
next table: 1357
cur table: 1358
epoch: 1000
next table: 1354
cur table: 1357
epoch: 1000
next table: 1504
cur table: 1507
epoch: 1000
next table: 1345
cur table: 1354
epoch: 1000
next table: 1515
cur table: 1504
epoch: 1000
next table: 1348
cur table: 1345
epoch: 1000
next table: 1347
cur table: 1348
epoch: 1000
next table: 1508
cur table: 1515
epoch: 1000
next table: 1348
cur table: 1347
epoch: 1000
next table: 1357
cur table: 1348
epoch: 1000
next table: 1516
cur table: 1508
epoch: 1000
next table: 1344
cur table: 1357
epoch: 1000
next table: 1510
cur table: 1516
epoch: 1000
next table: 1343
cur table: 1344
epoch: 1000
next table: 1350
cur table: 1343
epoch: 1000
next table: 1509
cur table: 1510
epoch: 1000
next table: 1341
cur table: 1350
epoch: 1000
next table: 1506
cur table: 1509
epoch: 1000
next table: 1351
cur table: 1341
epoch: 1000
next table: 1341
cur table: 1351
epoch: 1000
next table: 1520
cur table: 1506
epoch: 1000
next table: 1355
cur table: 1341
epoch: 1000
next table: 1523
cur table: 1520
epoch: 1000
next table: 1353
cur table: 1355
epoch: 1000
next table: 1358
cur table: 1353
epoch: 1000
next table: 1544
cur table: 1523
epoch: 1000
next table: 1370
cur table: 1358
epoch: 1000
next table: 1525
cur table: 1544
epoch: 1000
next table: 1360
cur table: 1370
epoch: 1000
next table: 1368
cur table: 1360
epoch: 1000
next table: 1507
cur table: 1525
epoch: 1000
next table: 1344
cur table: 1368
epoch: 1000
next table: 1510
cur table: 1507
epoch: 1000
next table: 1350
cur table: 1344
epoch: 1000
next table: 1344
cur table: 1350
epoch: 1000
next table: 1505
cur table: 1510
epoch: 1000
next table: 1340
cur table: 1344
epoch: 1000
next table: 1348
cur table: 1340
epoch: 1000
next table: 1506
cur table: 1505
epoch: 1000
next table: 1345
cur table: 1348
epoch: 1000
next table: 1516
cur table: 1506
epoch: 1000
next table: 1352
cur table: 1345
epoch: 1000
next table: 1347
cur table: 1352
epoch: 1000
next table: 1509
cur table: 1516
epoch: 1000
next table: 1346
cur table: 1347
epoch: 1000
next table: 1513
cur table: 1509
epoch: 1000
next table: 1349
cur table: 1346
epoch: 1000
next table: 1347
cur table: 1349
epoch: 1000
next table: 1507
cur table: 1513
epoch: 1000
next table: 1344
cur table: 1347
epoch: 1000
next table: 1506
cur table: 1507
epoch: 1000
next table: 1346
cur table: 1344
epoch: 1000
next table: 1350
cur table: 1346
epoch: 1000
next table: 1521
cur table: 1506
epoch: 1000
next table: 1362
cur table: 1350
epoch: 1000
next table: 1551
cur table: 1521
epoch: 1000
next table: 1367
cur table: 1362
epoch: 1000
next table: 1363
cur table: 1367
epoch: 1000
next table: 1522
cur table: 1551
epoch: 1000
next table: 1368
cur table: 1363
epoch: 1000
next table: 1508
cur table: 1522
epoch: 1000
next table: 1353
cur table: 1368
epoch: 1000
next table: 1358
cur table: 1353
epoch: 1000
next table: 1511
cur table: 1508
epoch: 1000
next table: 1338
cur table: 1358
epoch: 1000
next table: 1342
cur table: 1338
epoch: 1000
next table: 1499
cur table: 1511
epoch: 1000
next table: 1339
cur table: 1342
epoch: 1000
next table: 1509
cur table: 1499
epoch: 1000
next table: 1344
cur table: 1339
epoch: 1000
next table: 1344
cur table: 1344
epoch: 1000
next table: 1507
cur table: 1509
epoch: 1000
next table: 1348
cur table: 1344
epoch: 1000
next table: 1350
cur table: 1348
epoch: 1000
next table: 1345
cur table: 1350
epoch: 1000
next table: 1351
cur table: 1345
epoch: 1000
next table: 1346
cur table: 1351
epoch: 1000
next table: 1345
cur table: 1346
epoch: 1000
next table: 1350
cur table: 1345
epoch: 1000
next table: 1355
cur table: 1350
epoch: 1000
next table: 1357
cur table: 1355
epoch: 1000
next table: 1368
cur table: 1357
epoch: 1000
next table: 1361
cur table: 1368
epoch: 1000
next table: 1369
cur table: 1361
epoch: 1000
next table: 5118
cur table: 1507
epoch: 1000
next table: 1344
cur table: 1369
epoch: 1000
next table: 1349
cur table: 1344
epoch: 1000
next table: 1354
cur table: 1349
epoch: 1000
next table: 1338
cur table: 1354
epoch: 1000
next table: 1346
cur table: 1338
epoch: 1000
next table: 1346
cur table: 1346
epoch: 1000
next table: 1344
cur table: 1346
epoch: 1000
next table: 1350
cur table: 1344
epoch: 1000
next table: 1345
cur table: 1350
epoch: 1000
next table: 1349
cur table: 1345
epoch: 1000
next table: 1350
cur table: 1349
epoch: 1000
next table: 1341
cur table: 1350
epoch: 1000
next table: 1345
cur table: 1341
epoch: 1000
next table: 1356
cur table: 1345
epoch: 1000
next table: 1350
cur table: 1356
epoch: 1000
next table: 1373
cur table: 1350
epoch: 1000
next table: 1355
cur table: 1373
epoch: 1000
next table: 1360
cur table: 1355
epoch: 1000
next table: 1365
cur table: 1360
epoch: 1000
next table: 1350
cur table: 1365
epoch: 1000
next table: 1349
cur table: 1350
epoch: 1000
next table: 1356
cur table: 1349
epoch: 1000
next table: 1348
cur table: 1356
epoch: 1000
next table: 1380
cur table: 1348
epoch: 1000
next table: 1515
cur table: 1380
epoch: 1000
next table: 1410
cur table: 1515
epoch: 1000
next table: 1416
cur table: 1410
epoch: 1000
next table: 1413
cur table: 1416
epoch: 1000
next table: 1427
cur table: 1413
epoch: 1000
next table: 1439
cur table: 1427
epoch: 1000
next table: 1411
cur table: 1439
epoch: 1000
next table: 1406
cur table: 1411
Heartbeat CPU 0 instructions: 60000002 cycles: 32437268 heartbeat IPC: 0.579677 cumulative IPC: 0.579677 (Simulation time: 0 hr 24 min 28 sec) 
epoch: 1000
next table: 1378
cur table: 1406
epoch: 1000
next table: 1416
cur table: 1378
epoch: 1000
next table: 1408
cur table: 1416
epoch: 1000
next table: 1409
cur table: 1408
epoch: 1000
next table: 1422
cur table: 1409
epoch: 1000
next table: 1406
cur table: 1422
epoch: 1000
next table: 14659
cur table: 5118
epoch: 1000
next table: 1406
cur table: 1406
epoch: 1000
next table: 1412
cur table: 1406
epoch: 1000
next table: 1422
cur table: 1412
epoch: 1000
next table: 1390
cur table: 1422
epoch: 1000
next table: 1399
cur table: 1390
epoch: 1000
next table: 1409
cur table: 1399
epoch: 1000
next table: 1399
cur table: 1409
epoch: 1000
next table: 1391
cur table: 1399
Heartbeat CPU 0 instructions: 70000000 cycles: 51930327 heartbeat IPC: 0.513003 cumulative IPC: 0.544306 (Simulation time: 0 hr 27 min 17 sec) 
epoch: 1000
next table: 1413
cur table: 1391
epoch: 1000
next table: 1395
cur table: 1413
epoch: 1000
next table: 1395
cur table: 1395
epoch: 1000
next table: 1402
cur table: 1395
epoch: 1000
next table: 1421
cur table: 1402
epoch: 1000
next table: 1458
cur table: 1421
epoch: 1000
next table: 1408
cur table: 1458
epoch: 1000
next table: 1427
cur table: 1408
epoch: 1000
next table: 1407
cur table: 1427
epoch: 1000
next table: 1401
cur table: 1407
epoch: 1000
next table: 1428
cur table: 1401
epoch: 1000
next table: 1410
cur table: 1428
epoch: 1000
next table: 1402
cur table: 1410
epoch: 1000
next table: 1420
cur table: 1402
Heartbeat CPU 0 instructions: 80000000 cycles: 71414986 heartbeat IPC: 0.513224 cumulative IPC: 0.533535 (Simulation time: 0 hr 29 min 59 sec) 
epoch: 1000
next table: 1411
cur table: 1420
epoch: 1000
next table: 1411
cur table: 1411
epoch: 1000
next table: 1432
cur table: 1411
epoch: 1000
next table: 1423
cur table: 1432
epoch: 1000
next table: 1401
cur table: 1423
epoch: 1000
next table: 1411
cur table: 1401
epoch: 1000
next table: 1423
cur table: 1411
epoch: 1000
next table: 1405
cur table: 1423
epoch: 1000
next table: 1403
cur table: 1405
epoch: 1000
next table: 1403
cur table: 1403
epoch: 1000
next table: 1407
cur table: 1403
epoch: 1000
next table: 1392
cur table: 1407
epoch: 1000
next table: 1392
cur table: 1392
epoch: 1000
next table: 1421
cur table: 1392
Heartbeat CPU 0 instructions: 90000000 cycles: 90890879 heartbeat IPC: 0.513455 cumulative IPC: 0.528369 (Simulation time: 0 hr 36 min 20 sec) 
epoch: 1000
next table: 1393
cur table: 1421
epoch: 1000
next table: 1394
cur table: 1393
epoch: 1000
next table: 1408
cur table: 1394
epoch: 1000
next table: 1394
cur table: 1408
epoch: 1000
next table: 1401
cur table: 1394
epoch: 1000
next table: 1412
cur table: 1401
epoch: 1000
next table: 1412
cur table: 1412
epoch: 1000
next table: 1407
cur table: 1412
epoch: 1000
next table: 1427
cur table: 1407
epoch: 1000
next table: 1428
cur table: 1427
epoch: 1000
next table: 1416
cur table: 1428
epoch: 1000
next table: 1402
cur table: 1416
epoch: 1000
next table: 1428
cur table: 1402
epoch: 1000
next table: 1408
cur table: 1428
epoch: 1000
next table: 1402
cur table: 1408
Heartbeat CPU 0 instructions: 100000000 cycles: 110360261 heartbeat IPC: 0.513627 cumulative IPC: 0.525354 (Simulation time: 0 hr 42 min 4 sec) 
Finished CPU 0 instructions: 50000002 cycles: 95174002 cumulative IPC: 0.525354 (Simulation time: 0 hr 42 min 4 sec) 

ChampSim completed all CPUs

Region of Interest Statistics

CPU 0 cumulative IPC: 0.525354 instructions: 50000002 cycles: 95174002
ITLB TOTAL     ACCESS:    8485849  HIT:    8485847  MISS:          2  HIT %:        100  MISS %: 2.35686e-05   MPKI: 4e-05
ITLB LOAD TRANSLATION ACCESS:    8485849  HIT:    8485847  MISS:          2  HIT %:        100  MISS %: 2.35686e-05   MPKI: 4e-05
ITLB PREFETCH  REQUESTED:          0  ISSUED:          0  USEFUL:          0  USELESS:          0
ITLB USEFUL LOAD PREFETCHES:          0 PREFETCH ISSUED TO LOWER LEVEL:          0  ACCURACY: -nan
ITLB TIMELY PREFETCHES:          0 LATE PREFETCHES: 0 DROPPED PREFETCHES: 0
ITLB PREFETCHES SAME FILL-ORIGIN LEVEL: 0 DIFFERENT FILL-ORIGIN LEVEL: 0
ITLB AVERAGE MISS LATENCY: 325.5 cycles
ITLB RQ	ACCESS:   10714973	FORWARD:          0	MERGED:    2229125	TO_CACHE:    8485848

Revised Interactions: positive negative neutral
ITLB_interactions 0 0 0 -nan -nan -nan
DTLB TOTAL     ACCESS:   14244072  HIT:   14238196  MISS:       5876  HIT %:    99.9587  MISS %:  0.0412522   MPKI: 0.11752
DTLB LOAD TRANSLATION ACCESS:   14244072  HIT:   14238196  MISS:       5876  HIT %:    99.9587  MISS %:  0.0412522   MPKI: 0.11752
DTLB PREFETCH  REQUESTED:          0  ISSUED:          0  USEFUL:          0  USELESS:          0
DTLB USEFUL LOAD PREFETCHES:          0 PREFETCH ISSUED TO LOWER LEVEL:          0  ACCURACY: -nan
DTLB TIMELY PREFETCHES:          0 LATE PREFETCHES: 0 DROPPED PREFETCHES: 0
DTLB PREFETCHES SAME FILL-ORIGIN LEVEL: 0 DIFFERENT FILL-ORIGIN LEVEL: 0
DTLB AVERAGE MISS LATENCY: 176.758 cycles
DTLB RQ	ACCESS:   16105671	FORWARD:          0	MERGED:    1855504	TO_CACHE:   14250167

Revised Interactions: positive negative neutral
DTLB_interactions 0 0 0 -nan -nan -nan
STLB TOTAL     ACCESS:     439971  HIT:     434103  MISS:       5868  HIT %:    98.6663  MISS %:    1.33372   MPKI: 0.11736
STLB LOAD TRANSLATION ACCESS:       5878  HIT:         10  MISS:       5868  HIT %:   0.170126  MISS %:    99.8299   MPKI: 0.11736
STLB TRANSLATION FROM L1D PREFETCHER ACCESS:     434093  HIT:     434093  MISS:          0  HIT %:        100  MISS %:          0   MPKI: 0
STLB PREFETCH  REQUESTED:          0  ISSUED:          0  USEFUL:          0  USELESS:          0
STLB USEFUL LOAD PREFETCHES:          0 PREFETCH ISSUED TO LOWER LEVEL:          0  ACCURACY: -nan
STLB TIMELY PREFETCHES:          0 LATE PREFETCHES: 0 DROPPED PREFETCHES: 0
STLB PREFETCHES SAME FILL-ORIGIN LEVEL: 0 DIFFERENT FILL-ORIGIN LEVEL: 0
STLB AVERAGE MISS LATENCY: 167.793 cycles
STLB RQ	ACCESS:    2271395	FORWARD:          0	MERGED:    1831425	TO_CACHE:     439970

Revised Interactions: positive negative neutral
STLB_interactions 0 0 0 -nan -nan -nan
STLB Hit, L1D data hit: 0
STLB Hit, L2C data hit: 0
STLB Hit, LLC data hit: 0
STLB Hit, LLC data miss: 0
STLB STLB hints to L2: 0
L1D TOTAL     ACCESS:   17969822  HIT:   17716225  MISS:     253597  HIT %:    98.5888  MISS %:    1.41124   MPKI: 5.07194
L1D LOAD      ACCESS:   10110392  HIT:   10104162  MISS:       6230  HIT %:    99.9384  MISS %:  0.0616198   MPKI: 0.1246
L1D RFO       ACCESS:    5595575  HIT:    5511007  MISS:      84568  HIT %:    98.4887  MISS %:    1.51134   MPKI: 1.69136
L1D PREFETCH  ACCESS:    2263855  HIT:    2101056  MISS:     162799  HIT %:    92.8088  MISS %:    7.19123   MPKI: 3.25598
L1D PREFETCH  REQUESTED:    4531221  ISSUED:    4531034  USEFUL:     149863  USELESS:      12925
L1D USEFUL LOAD PREFETCHES:     149863 PREFETCH ISSUED TO LOWER LEVEL:     162993  ACCURACY: 91.9444
L1D TIMELY PREFETCHES:     149863 LATE PREFETCHES: 8959 DROPPED PREFETCHES: 0
L1D PREFETCHES SAME FILL-ORIGIN LEVEL: 162993 DIFFERENT FILL-ORIGIN LEVEL: 0
L1D AVERAGE MISS LATENCY: 144.133 cycles
L1D RQ	ACCESS:   11911865	FORWARD:          0	MERGED:    1777209	TO_CACHE:   10126574
L1D WQ	ACCESS:    6358286	FORWARD:       8082	MERGED:     379189	TO_CACHE:    5979097
L1D PQ	ACCESS:    2265517	FORWARD:          0	MERGED:          0	TO_CACHE:    2265517

Revised Interactions: positive negative neutral
L1D_interactions 0 0 0 -nan -nan -nan
L1D UNIQUE REGIONS ACCESSED: 0
L1D REGIONS CONFLICTS: 0
L1D Cross Page Prefetch Requests: 0
L1D Same Page Prefetch Requests: 4414205
L1D ROI Sum of L1D PQ occupancy: 33716890
L1D PREFETCHES PUSHED FROM L2C: 0
L1I TOTAL     ACCESS:   10714966  HIT:   10714930  MISS:         36  HIT %:    99.9997  MISS %: 0.000335979   MPKI: 0.00072
L1I LOAD      ACCESS:   10714966  HIT:   10714930  MISS:         36  HIT %:    99.9997  MISS %: 0.000335979   MPKI: 0.00072
L1I PREFETCH  REQUESTED:          0  ISSUED:          0  USEFUL:          0  USELESS:          0
L1I USEFUL LOAD PREFETCHES:          0 PREFETCH ISSUED TO LOWER LEVEL:          0  ACCURACY: -nan
L1I TIMELY PREFETCHES:          0 LATE PREFETCHES: 0 DROPPED PREFETCHES: 0
L1I PREFETCHES SAME FILL-ORIGIN LEVEL: 0 DIFFERENT FILL-ORIGIN LEVEL: 0
L1I AVERAGE MISS LATENCY: 275.889 cycles
L1I RQ	ACCESS:   14214970	FORWARD:          0	MERGED:    3499997	TO_CACHE:   10714973

Revised Interactions: positive negative neutral
L1I_interactions 0 0 0 -nan -nan -nan
BTB TOTAL     ACCESS:    3368720  HIT:    2989493  MISS:     379227  HIT %:    88.7427  MISS %:    11.2573   MPKI: 7.58454
BTB BRANCH_DIRECT_JUMP	ACCESS:     379197  HIT:     379193  MISS:          4
BTB BRANCH_INDIRECT	ACCESS:          0  HIT:          0  MISS:          0
BTB BRANCH_CONDITIONAL	ACCESS:    1472750  HIT:    1472730  MISS:         20
BTB BRANCH_DIRECT_CALL	ACCESS:     758387  HIT:     758379  MISS:          8
BTB BRANCH_INDIRECT_CALL	ACCESS:          0  HIT:          0  MISS:          0
BTB BRANCH_RETURN	ACCESS:     758386  HIT:     379191  MISS:     379195
BTB BRANCH_OTHER ACCESS:          0  HIT:          0  MISS:          0

L2C TOTAL     ACCESS:     920851  HIT:     655679  MISS:     265172  HIT %:    71.2036  MISS %:    28.7964   MPKI: 5.30344
L2C LOAD      ACCESS:       6266  HIT:        265  MISS:       6001  HIT %:    4.22917  MISS %:    95.7708   MPKI: 0.12002
L2C DATA LOAD MPKI: 0.1193
L2C INSTRUCTION LOAD MPKI: 0.00072
L2C RFO       ACCESS:      84568  HIT:         13  MISS:      84555  HIT %:  0.0153722  MISS %:    99.9846   MPKI: 1.6911
L2C PREFETCH  ACCESS:     739675  HIT:     568471  MISS:     171204  HIT %:    76.8542  MISS %:    23.1458   MPKI: 3.42408
L2C DATA PREFETCH MPKI: 3.42408
L2C INSTRUCTION PREFETCH MPKI: 0
L2C WRITEBACK ACCESS:      84464  HIT:      82301  MISS:       2163  HIT %:    97.4391  MISS %:    2.56085   MPKI: 0.04326
L2C LOAD TRANSLATION ACCESS:       5878  HIT:       4629  MISS:       1249  HIT %:    78.7513  MISS %:    21.2487   MPKI: 0.02498
L2C PREFETCH  REQUESTED:     741389  ISSUED:     738628  USEFUL:        201  USELESS:     171626
L2C USEFUL LOAD PREFETCHES:        201 PREFETCH ISSUED TO LOWER LEVEL:     171253  ACCURACY: 0.11737
L2C TIMELY PREFETCHES:        201 LATE PREFETCHES: 49 DROPPED PREFETCHES: 0
L2C PREFETCHES SAME FILL-ORIGIN LEVEL: 142035 DIFFERENT FILL-ORIGIN LEVEL: 0
L2C AVERAGE MISS LATENCY: 243.842 cycles
L2C RQ	ACCESS:      96712	FORWARD:          0	MERGED:          0	TO_CACHE:      96712
L2C WQ	ACCESS:      84464	FORWARD:          0	MERGED:          0	TO_CACHE:      84464
L2C PQ	ACCESS:     901427	FORWARD:          0	MERGED:      48900	TO_CACHE:     852527

Revised Interactions: positive negative neutral
L2C_interactions 1001 170385 55314 0.441553 75.1588 24.3996
L2C Instructions Evicting Data 36
L2C Translations Evicting Data 1246
L2C Data Evicting Data 260436
L2C Instructions Evicting Instructions 0
L2C Translations Evicting Instructions 0
L2C Data Evicting Instructions 36
L2C Instructions Evicting Translations 0
L2C Translations Evicting Translations 3
L2C Data Evicting Translations 1252
L2C Dense regions hint from L2: 0
PSCL5 TOTAL     ACCESS:       5868  HIT:       5868  MISS:          0  HIT %:        100  MISS %:          0   MPKI: 0
PSCL5 LOAD TRANSLATION ACCESS:       5868  HIT:       5868  MISS:          0  HIT %:        100  MISS %:          0   MPKI: 0
PSCL5 PREFETCH  REQUESTED:          0  ISSUED:          0  USEFUL:          0  USELESS:          0
PSCL5 USEFUL LOAD PREFETCHES:          0 PREFETCH ISSUED TO LOWER LEVEL:          0  ACCURACY: -nan
PSCL5 TIMELY PREFETCHES:          0 LATE PREFETCHES: 0 DROPPED PREFETCHES: 0
PSCL5 PREFETCHES SAME FILL-ORIGIN LEVEL: 0 DIFFERENT FILL-ORIGIN LEVEL: 0

Revised Interactions: positive negative neutral
PSCL5_interactions 0 0 0 -nan -nan -nan
PSCL4 TOTAL     ACCESS:       5868  HIT:       5868  MISS:          0  HIT %:        100  MISS %:          0   MPKI: 0
PSCL4 LOAD TRANSLATION ACCESS:       5868  HIT:       5868  MISS:          0  HIT %:        100  MISS %:          0   MPKI: 0
PSCL4 PREFETCH  REQUESTED:          0  ISSUED:          0  USEFUL:          0  USELESS:          0
PSCL4 USEFUL LOAD PREFETCHES:          0 PREFETCH ISSUED TO LOWER LEVEL:          0  ACCURACY: -nan
PSCL4 TIMELY PREFETCHES:          0 LATE PREFETCHES: 0 DROPPED PREFETCHES: 0
PSCL4 PREFETCHES SAME FILL-ORIGIN LEVEL: 0 DIFFERENT FILL-ORIGIN LEVEL: 0

Revised Interactions: positive negative neutral
PSCL4_interactions 0 0 0 -nan -nan -nan
PSCL3 TOTAL     ACCESS:       5868  HIT:       5867  MISS:          1  HIT %:     99.983  MISS %:  0.0170416   MPKI: 2e-05
PSCL3 LOAD TRANSLATION ACCESS:       5868  HIT:       5867  MISS:          1  HIT %:     99.983  MISS %:  0.0170416   MPKI: 2e-05
PSCL3 PREFETCH  REQUESTED:          0  ISSUED:          0  USEFUL:          0  USELESS:          0
PSCL3 USEFUL LOAD PREFETCHES:          0 PREFETCH ISSUED TO LOWER LEVEL:          0  ACCURACY: -nan
PSCL3 TIMELY PREFETCHES:          0 LATE PREFETCHES: 0 DROPPED PREFETCHES: 0
PSCL3 PREFETCHES SAME FILL-ORIGIN LEVEL: 0 DIFFERENT FILL-ORIGIN LEVEL: 0

Revised Interactions: positive negative neutral
PSCL3_interactions 0 0 0 -nan -nan -nan
PSCL2 TOTAL     ACCESS:       5868  HIT:       5843  MISS:         25  HIT %:     99.574  MISS %:    0.42604   MPKI: 0.0005
PSCL2 LOAD TRANSLATION ACCESS:       5868  HIT:       5843  MISS:         25  HIT %:     99.574  MISS %:    0.42604   MPKI: 0.0005
PSCL2 PREFETCH  REQUESTED:          0  ISSUED:          0  USEFUL:          0  USELESS:          0
PSCL2 USEFUL LOAD PREFETCHES:          0 PREFETCH ISSUED TO LOWER LEVEL:          0  ACCURACY: -nan
PSCL2 TIMELY PREFETCHES:          0 LATE PREFETCHES: 0 DROPPED PREFETCHES: 0
PSCL2 PREFETCHES SAME FILL-ORIGIN LEVEL: 0 DIFFERENT FILL-ORIGIN LEVEL: 0

Revised Interactions: positive negative neutral
PSCL2_interactions 0 0 0 -nan -nan -nan
LLC TOTAL     ACCESS:     346785  HIT:      36779  MISS:     310006  HIT %:    10.6057  MISS %:    89.3943   MPKI: 6.20012
LLC LOAD      ACCESS:       5952  HIT:        125  MISS:       5827  HIT %:    2.10013  MISS %:    97.8999   MPKI: 0.11654
LLC RFO       ACCESS:      84555  HIT:          0  MISS:      84555  HIT %:          0  MISS %:        100   MPKI: 1.6911
LLC PREFETCH  ACCESS:     171253  HIT:      13498  MISS:     157755  HIT %:    7.88191  MISS %:    92.1181   MPKI: 3.1551
LLC WRITEBACK ACCESS:      83776  HIT:      23124  MISS:      60652  HIT %:    27.6022  MISS %:    72.3978   MPKI: 1.21304
LLC LOAD TRANSLATION ACCESS:       1249  HIT:         32  MISS:       1217  HIT %:    2.56205  MISS %:     97.438   MPKI: 0.02434
LLC PREFETCH  REQUESTED:          0  ISSUED:          0  USEFUL:          2  USELESS:      27797
LLC USEFUL LOAD PREFETCHES:          2 PREFETCH ISSUED TO LOWER LEVEL:     157755  ACCURACY: 0.00126779
LLC TIMELY PREFETCHES:          2 LATE PREFETCHES: 0 DROPPED PREFETCHES: 0
LLC PREFETCHES SAME FILL-ORIGIN LEVEL: 0 DIFFERENT FILL-ORIGIN LEVEL: 0
LLC AVERAGE MISS LATENCY: 181.394 cycles
LLC RQ	ACCESS:      91756	FORWARD:          0	MERGED:          0	TO_CACHE:      91756
LLC WQ	ACCESS:      83776	FORWARD:          0	MERGED:          0	TO_CACHE:      83776
LLC PQ	ACCESS:     171253	FORWARD:          0	MERGED:          0	TO_CACHE:     171253

Revised Interactions: positive negative neutral
LLC_interactions 0 25317 11669 0 68.4502 31.5498
LLC Dense regions hint to LLC: 0

RAW hits: 1549823
Loads Generated: 13461689
Loads sent to L1D: 11911865
Stores Generated: 6358282
Stores sent to L1D: 6358286
Major fault: 0 Minor fault: 10630
Allocated PAGES: 10630

stream: 
stream:times selected: 2830970
stream:pref_filled: 342635
stream:pref_useful: 320520
stream:pref_late: 2610
stream:misses: 46
stream:misses_by_poll: 0

CS: 
CS:times selected: 493474
CS:pref_filled: 4324
CS:pref_useful: 4216
CS:pref_late: 10
CS:misses: 26828
CS:misses_by_poll: 1

CPLX: 
CPLX:times selected: 2335553
CPLX:pref_filled: 144
CPLX:pref_useful: 20
CPLX:pref_late: 2
CPLX:misses: 558
CPLX:misses_by_poll: 0

NL_L1: 
NL:times selected: 5
NL:pref_filled: 4
NL:pref_useful: 3
NL:pref_late: 0
NL:misses: 1
NL:misses_by_poll: 0

total selections: 5660002
total_filled: 162799
total_useful: 149863
total_late: 2622
total_polluted: 1
total_misses_after_warmup: 22417
conflicts: 829
Degree Incremented Times: 99244
Degree Decremented Times: 0

L1 IP Table Write Accesses: 10125050
L1 IP Table Read Accesses: 10124221
L1 RST Write Accesses: 1549804
L1 RST Read Accesses: 3099608
L1 CSPT Write Accesses: 1549804
L1 CSPT Read Accesses: 5490525
L1 RR Filter Tag Write Accesses: 2265704
L1 RR Filter Tag Read Accesses: 287566955
L1 IP Table Tag Write Accesses: 10126579
L1 IP Table Tag Read Accesses: 10126579
L1 RST Tag Write Accesses: 0
L1 RST Tag Read Accesses: 17749224
L1 RR Filter Write Accesses: 0
L1 RR Filter Read Accesses: 13814506
test: 641624
L2 IP Table Read Accesses: 264754
L2 IP Table Write Accesses: 258597
L2 IP Table Tag Read Accesses: 132397
L2 IP Table Tag Write Accesses: 132397

DRAM Statistics
 CHANNEL 0
 RQ ROW_BUFFER_HIT:     102214  ROW_BUFFER_MISS:     147140
 DBUS_CONGESTED:         30
 WQ ROW_BUFFER_HIT:      12112  ROW_BUFFER_MISS:      70181  FULL:        217

 AVG_CONGESTED_CYCLE: 6
 All warmup complete: 2
Channel 0 Bank busy for read cycles: 0
Channel 0 Bank busy for write cycles: 0
Channel 0
Rank 0
0banks busy for read cycles: 80675314
0banks busy for write cycles: 17756
1banks busy for read cycles: 5143004
1banks busy for write cycles: 2668579
2banks busy for read cycles: 662058
2banks busy for write cycles: 228435
3banks busy for read cycles: 963666
3banks busy for write cycles: 59749
4banks busy for read cycles: 920419
4banks busy for write cycles: 42869
5banks busy for read cycles: 513822
5banks busy for write cycles: 37689
6banks busy for read cycles: 526268
6banks busy for write cycles: 34690
7banks busy for read cycles: 578355
7banks busy for write cycles: 119615
8banks busy for read cycles: 650855
8banks busy for write cycles: 1330860

CPU 0 Branch Prediction Accuracy: 99.9746% MPKI: 0.0287 Average ROB Occupancy at Mispredict: 34.1861
Branch types
NOT_BRANCH: 44355134 88.7103%
BRANCH_DIRECT_JUMP: 379197 0.758394%
BRANCH_INDIRECT: 0 0%
BRANCH_CONDITIONAL: 3748583 7.49717%
BRANCH_DIRECT_CALL: 758387 1.51677%
BRANCH_INDIRECT_CALL: 0 0%
BRANCH_RETURN: 758386 1.51677%
BRANCH_OTHER: 0 0%

@sumon_overall_L1D    149863      8959      8959     12925    162799   4531034   4531221
@Sumon_Early_by_class_L1D    149221       633         9         0
@Sumon_Late_by_class_L1D      2532         8         2         0

@Sumon_Early_by_cycle_L1D      5375      7845     12350     39118      3201     56910      1940       376      1846     20883         0        19
@Sumon_Late_by_cycle_L1D       440       451       266       576       761        48
@Sumon_Early_stream_L1D      5347      7823     12339     39092      3096     56896      1938       373      1421     20883         0        13
@Sumon_Early_CS_L1D        27        21        11        26       105        13         2         3       425         0         0         0
@Sumon_Early_CPLX_L1D         1         1         0         0         0         1         0         0         0         0         0         6
@Sumon_Late_stream_L1D       440       449       266       575       754        48
@Sumon_Late_CS_L1D         0         2         0         0         6         0
@Sumon_Late_CPLX_L1D         0         0         0         1         1         0
@sumon_overall_L2C       201        49         0    171626    171204    738628    741389
@Sumon_Early_by_class_L2C       196         2         0         0
@Sumon_Late_by_class_L2C        49         0         0         0

@Sumon_Early_by_cycle_L2C         4         2         3         2         3         8        30         3         5       125         0        16
@Sumon_Late_by_cycle_L2C         0         0         0         7        41         1
@Sumon_Early_stream_L2C         3         2         3         2         3         8        29         1         4       125         0        16
@Sumon_Early_CS_L2C         0         0         0         0         0         0         0         1         1         0         0         0
@Sumon_Early_CPLX_L2C         0         0         0         0         0         0         0         0         0         0         0         0
@Sumon_Late_stream_L2C         0         0         0         7        41         1
@Sumon_Late_CS_L2C         0         0         0         0         0         0
@Sumon_Late_CPLX_L2C         0         0         0         0         0         0
DRAM PAGES: 1048576
Allocated PAGES: 10630
