
*** ChampSim Multicore Out-of-Order Simulator ***

Warmup Instructions: 50000000
Simulation Instructions: 50000000
Number of CPUs: 1
LLC sets: 2048
LLC ways: 16
Off-chip DRAM Size: 4096 MB Channels: 1 Width: 64-bit Data Rate: 6400 MT/s
CPU 0 runs ../../biswa/SPEC2017Traces/654.roms_s-1390B.champsimtrace.xz
.xz
CPU 0 Bimodal branch predictor
BTB has LRU replacement policy
ITLB has LRU replacement policy
DTLB has LRU replacement policy
STLB has LRU replacement policy
L1I has LRU replacement policy
IP Table Entries: 256
L1D has LRU replacement policy
IP_Table L2 entries: 256
Initialize DRRIP state for L2C
epoch: 1000
next table: 1223
cur table: 2568
epoch: 1000
next table: 1177
cur table: 1223
epoch: 1000
next table: 1173
cur table: 1177
epoch: 1000
next table: 1175
cur table: 1173
epoch: 1000
next table: 1173
cur table: 1175
epoch: 1000
next table: 1175
cur table: 1173
epoch: 1000
next table: 1173
cur table: 1175
epoch: 1000
next table: 1176
cur table: 1173
epoch: 1000
next table: 1180
cur table: 1176
epoch: 1000
next table: 1172
cur table: 1180
epoch: 1000
next table: 1175
cur table: 1172
epoch: 1000
next table: 1174
cur table: 1175
epoch: 1000
next table: 1176
cur table: 1174
epoch: 1000
next table: 1180
cur table: 1176
epoch: 1000
next table: 1175
cur table: 1180
epoch: 1000
next table: 1176
cur table: 1175
epoch: 1000
next table: 1181
cur table: 1176
epoch: 1000
next table: 1178
cur table: 1181
epoch: 1000
next table: 1180
cur table: 1178
epoch: 1000
next table: 1185
cur table: 1180
epoch: 1000
next table: 1192
cur table: 1185
epoch: 1000
next table: 1174
cur table: 1192
epoch: 1000
next table: 1175
cur table: 1174
epoch: 1000
next table: 1173
cur table: 1175
epoch: 1000
next table: 1521
cur table: 5783
epoch: 1000
next table: 1175
cur table: 1173
epoch: 1000
next table: 1261
cur table: 1521
epoch: 1000
next table: 1172
cur table: 1175
epoch: 1000
next table: 1174
cur table: 1172
epoch: 1000
next table: 1207
cur table: 1261
epoch: 1000
next table: 1173
cur table: 1174
epoch: 1000
next table: 1178
cur table: 1207
epoch: 1000
next table: 1175
cur table: 1173
epoch: 1000
next table: 1161
cur table: 1178
epoch: 1000
next table: 1172
cur table: 1175
epoch: 1000
next table: 1167
cur table: 1161
epoch: 1000
next table: 1176
cur table: 1172
epoch: 1000
next table: 1162
cur table: 1167
epoch: 1000
next table: 1173
cur table: 1176
epoch: 1000
next table: 1162
cur table: 1162
epoch: 1000
next table: 1178
cur table: 1173
epoch: 1000
next table: 1159
cur table: 1162
epoch: 1000
next table: 1174
cur table: 1178
epoch: 1000
next table: 1162
cur table: 1159
epoch: 1000
next table: 1174
cur table: 1174
epoch: 1000
next table: 1158
cur table: 1162
epoch: 1000
next table: 1175
cur table: 1174
epoch: 1000
next table: 1156
cur table: 1158
epoch: 1000
next table: 1176
cur table: 1175
epoch: 1000
next table: 1156
cur table: 1156
epoch: 1000
next table: 1179
cur table: 1176
epoch: 1000
next table: 1160
cur table: 1156
epoch: 1000
next table: 1174
cur table: 1179
epoch: 1000
next table: 1155
cur table: 1160
epoch: 1000
next table: 1171
cur table: 1174
epoch: 1000
next table: 1157
cur table: 1155
epoch: 1000
next table: 1175
cur table: 1171
epoch: 1000
next table: 1155
cur table: 1157
epoch: 1000
next table: 1173
cur table: 1175
epoch: 1000
next table: 1157
cur table: 1155
epoch: 1000
next table: 1176
cur table: 1173
epoch: 1000
next table: 1155
cur table: 1157
epoch: 1000
next table: 1172
cur table: 1176
epoch: 1000
next table: 1157
cur table: 1155
epoch: 1000
next table: 1174
cur table: 1172
epoch: 1000
next table: 1156
cur table: 1157
epoch: 1000
next table: 1173
cur table: 1174
epoch: 1000
next table: 1160
cur table: 1156
epoch: 1000
next table: 1174
cur table: 1173
epoch: 1000
next table: 1154
cur table: 1160
epoch: 1000
next table: 1173
cur table: 1174
epoch: 1000
next table: 1156
cur table: 1154
epoch: 1000
next table: 1175
cur table: 1173
epoch: 1000
next table: 1156
cur table: 1156
epoch: 1000
next table: 1173
cur table: 1175
epoch: 1000
next table: 1154
cur table: 1156
epoch: 1000
next table: 1175
cur table: 1173
epoch: 1000
next table: 1158
cur table: 1154
epoch: 1000
next table: 1176
cur table: 1175
epoch: 1000
next table: 1157
cur table: 1158
epoch: 1000
next table: 1177
cur table: 1176
epoch: 1000
next table: 1159
cur table: 1157
epoch: 1000
next table: 1175
cur table: 1177
epoch: 1000
next table: 1173
cur table: 1159
epoch: 1000
next table: 1171
cur table: 1175
epoch: 1000
next table: 1178
cur table: 1173
epoch: 1000
next table: 1178
cur table: 1171
epoch: 1000
next table: 1188
cur table: 1178
epoch: 1000
next table: 1182
cur table: 1178
epoch: 1000
next table: 1176
cur table: 1182
epoch: 1000
next table: 1181
cur table: 1188
epoch: 1000
next table: 1180
cur table: 1176
epoch: 1000
next table: 1191
cur table: 1181
epoch: 1000
next table: 1179
cur table: 1180
epoch: 1000
next table: 1189
cur table: 1191
epoch: 1000
next table: 1179
cur table: 1179
epoch: 1000
next table: 1203
cur table: 1189
epoch: 1000
next table: 1187
cur table: 1179
epoch: 1000
next table: 1183
cur table: 1203
epoch: 1000
next table: 1188
cur table: 1187
epoch: 1000
next table: 1189
cur table: 1183
epoch: 1000
next table: 1172
cur table: 1188
epoch: 1000
next table: 1175
cur table: 1172
epoch: 1000
next table: 1175
cur table: 1189
epoch: 1000
next table: 1176
cur table: 1175
epoch: 1000
next table: 1180
cur table: 1175
epoch: 1000
next table: 1171
cur table: 1176
epoch: 1000
next table: 1182
cur table: 1180
epoch: 1000
next table: 1175
cur table: 1171
epoch: 1000
next table: 1178
cur table: 1182
epoch: 1000
next table: 1173
cur table: 1175
epoch: 1000
next table: 1182
cur table: 1178
epoch: 1000
next table: 1175
cur table: 1173
epoch: 1000
next table: 1184
cur table: 1182
epoch: 1000
next table: 1172
cur table: 1175
epoch: 1000
next table: 1175
cur table: 1172
epoch: 1000
next table: 1176
cur table: 1184
epoch: 1000
next table: 1172
cur table: 1175
epoch: 1000
next table: 1187
cur table: 1176
epoch: 1000
next table: 1175
cur table: 1172
epoch: 1000
next table: 1180
cur table: 1187
epoch: 1000
next table: 1173
cur table: 1175
epoch: 1000
next table: 1182
cur table: 1180
epoch: 1000
next table: 1174
cur table: 1173
epoch: 1000
next table: 1217
cur table: 1182
epoch: 1000
next table: 1174
cur table: 1174
epoch: 1000
next table: 1176
cur table: 1174
epoch: 1000
next table: 1219
cur table: 1217
epoch: 1000
next table: 1172
cur table: 1176
epoch: 1000
next table: 1219
cur table: 1219
epoch: 1000
next table: 1178
cur table: 1172
epoch: 1000
next table: 1175
cur table: 1178
epoch: 1000
next table: 1221
cur table: 1219
epoch: 1000
next table: 1180
cur table: 1175
epoch: 1000
next table: 1271
cur table: 1221
epoch: 1000
next table: 1171
cur table: 1180
epoch: 1000
next table: 1173
cur table: 1171
epoch: 1000
next table: 1174
cur table: 1173
epoch: 1000
next table: 1439
cur table: 1271
epoch: 1000
next table: 1175
cur table: 1174
epoch: 1000
next table: 1173
cur table: 1175
epoch: 1000
next table: 1174
cur table: 1173
epoch: 1000
next table: 1173
cur table: 1174
epoch: 1000
next table: 1175
cur table: 1173
epoch: 1000
next table: 1172
cur table: 1175
epoch: 1000
next table: 1959
cur table: 1439
epoch: 1000
next table: 1175
cur table: 1172
epoch: 1000
next table: 1172
cur table: 1175
epoch: 1000
next table: 1175
cur table: 1172
epoch: 1000
next table: 1174
cur table: 1175
epoch: 1000
next table: 1176
cur table: 1174
epoch: 1000
next table: 1173
cur table: 1176
epoch: 1000
next table: 1978
cur table: 1959
epoch: 1000
next table: 1183
cur table: 1173
epoch: 1000
next table: 1177
cur table: 1183
epoch: 1000
next table: 1182
cur table: 1177
epoch: 1000
next table: 1179
cur table: 1182
epoch: 1000
next table: 1179
cur table: 1179
epoch: 1000
next table: 1183
cur table: 1179
epoch: 1000
next table: 1184
cur table: 1183
epoch: 1000
next table: 2048
cur table: 1978
epoch: 1000
next table: 1178
cur table: 1184
epoch: 1000
next table: 1186
cur table: 1178
epoch: 1000
next table: 1173
cur table: 1186
epoch: 1000
next table: 1171
cur table: 1173
epoch: 1000
next table: 1179
cur table: 1171
epoch: 1000
next table: 1174
cur table: 1179
epoch: 1000
next table: 2002
cur table: 2048
epoch: 1000
next table: 1175
cur table: 1174
epoch: 1000
next table: 1174
cur table: 1175
epoch: 1000
next table: 1173
cur table: 1174
epoch: 1000
next table: 1173
cur table: 1173
epoch: 1000
next table: 1174
cur table: 1173
epoch: 1000
next table: 1173
cur table: 1174
epoch: 1000
next table: 1175
cur table: 1173
epoch: 1000
next table: 2017
cur table: 2002
epoch: 1000
next table: 1172
cur table: 1175
epoch: 1000
next table: 1177
cur table: 1172
epoch: 1000
next table: 1174
cur table: 1177
epoch: 1000
next table: 1177
cur table: 1174
epoch: 1000
next table: 1172
cur table: 1177
epoch: 1000
next table: 1178
cur table: 1172
epoch: 1000
next table: 2019
cur table: 2017
epoch: 1000
next table: 1172
cur table: 1178
epoch: 1000
next table: 1178
cur table: 1172
epoch: 1000
next table: 1177
cur table: 1178
epoch: 1000
next table: 1172
cur table: 1177
epoch: 1000
next table: 1173
cur table: 1172
epoch: 1000
next table: 1175
cur table: 1173
epoch: 1000
next table: 1174
cur table: 1175
epoch: 1000
next table: 2012
cur table: 2019
epoch: 1000
next table: 1174
cur table: 1174
epoch: 1000
next table: 1173
cur table: 1174
epoch: 1000
next table: 1175
cur table: 1173
epoch: 1000
next table: 1173
cur table: 1175
epoch: 1000
next table: 1174
cur table: 1173
epoch: 1000
next table: 1173
cur table: 1174
epoch: 1000
next table: 2000
cur table: 2012
epoch: 1000
next table: 1174
cur table: 1173
epoch: 1000
next table: 1174
cur table: 1174
epoch: 1000
next table: 1176
cur table: 1174
epoch: 1000
next table: 1174
cur table: 1176
epoch: 1000
next table: 1184
cur table: 1174
epoch: 1000
next table: 1185
cur table: 1184
epoch: 1000
next table: 1177
cur table: 1185
epoch: 1000
next table: 2054
cur table: 2000
epoch: 1000
next table: 1183
cur table: 1177
epoch: 1000
next table: 1181
cur table: 1183
epoch: 1000
next table: 1182
cur table: 1181
epoch: 1000
next table: 1190
cur table: 1182
epoch: 1000
next table: 1636
cur table: 2054
epoch: 1000
next table: 1174
cur table: 1190
epoch: 1000
next table: 1154
cur table: 1636
epoch: 1000
next table: 1185
cur table: 1174
epoch: 1000
next table: 1155
cur table: 1154
epoch: 1000
next table: 1185
cur table: 1185
epoch: 1000
next table: 1158
cur table: 1155
epoch: 1000
next table: 1184
cur table: 1185
epoch: 1000
next table: 1156
cur table: 1158
epoch: 1000
next table: 1187
cur table: 1184
epoch: 1000
next table: 1156
cur table: 1156
epoch: 1000
next table: 1187
cur table: 1187
epoch: 1000
next table: 1156
cur table: 1156
epoch: 1000
next table: 1192
cur table: 1187
epoch: 1000
next table: 1160
cur table: 1156
epoch: 1000
next table: 1186
cur table: 1192
epoch: 1000
next table: 1157
cur table: 1160
epoch: 1000
next table: 1187
cur table: 1186
epoch: 1000
next table: 1159
cur table: 1157
epoch: 1000
next table: 1187
cur table: 1187
epoch: 1000
next table: 1156
cur table: 1159
epoch: 1000
next table: 1188
cur table: 1187
epoch: 1000
next table: 1160
cur table: 1156
epoch: 1000
next table: 1188
cur table: 1188
epoch: 1000
next table: 1157
cur table: 1160
epoch: 1000
next table: 1190
cur table: 1188
epoch: 1000
next table: 1156
cur table: 1157
epoch: 1000
next table: 1187
cur table: 1190
epoch: 1000
next table: 1158
cur table: 1156
epoch: 1000
next table: 1190
cur table: 1187
epoch: 1000
next table: 1157
cur table: 1158
epoch: 1000
next table: 1188
cur table: 1190
epoch: 1000
next table: 1156
cur table: 1157
epoch: 1000
next table: 1190
cur table: 1188
epoch: 1000
next table: 1156
cur table: 1156
epoch: 1000
next table: 1182
cur table: 1190
epoch: 1000
next table: 1156
cur table: 1156
epoch: 1000
next table: 1190
cur table: 1182
epoch: 1000
next table: 1156
cur table: 1156
epoch: 1000
next table: 1185
cur table: 1190
epoch: 1000
next table: 1157
cur table: 1156
epoch: 1000
next table: 1187
cur table: 1185
epoch: 1000
next table: 1157
cur table: 1157
epoch: 1000
next table: 1183
cur table: 1187
epoch: 1000
next table: 1159
cur table: 1157
epoch: 1000
next table: 1187
cur table: 1183
epoch: 1000
next table: 1159
cur table: 1159
epoch: 1000
next table: 1183
cur table: 1187
epoch: 1000
next table: 1157
cur table: 1159
epoch: 1000
next table: 1187
cur table: 1183
epoch: 1000
next table: 1154
cur table: 1157
epoch: 1000
next table: 1183
cur table: 1187
epoch: 1000
next table: 1157
cur table: 1154
epoch: 1000
next table: 1188
cur table: 1183
epoch: 1000
next table: 1157
cur table: 1157
epoch: 1000
next table: 1185
cur table: 1188
epoch: 1000
next table: 1158
cur table: 1157
epoch: 1000
next table: 1188
cur table: 1185
epoch: 1000
next table: 1159
cur table: 1158
epoch: 1000
next table: 1185
cur table: 1188
epoch: 1000
next table: 1161
cur table: 1159
epoch: 1000
next table: 1188
cur table: 1185
epoch: 1000
next table: 1159
cur table: 1161
epoch: 1000
next table: 1192
cur table: 1188
epoch: 1000
next table: 1153
cur table: 1159
epoch: 1000
next table: 1191
cur table: 1192
epoch: 1000
next table: 1156
cur table: 1153
epoch: 1000
next table: 1184
cur table: 1191
epoch: 1000
next table: 1160
cur table: 1156
epoch: 1000
next table: 1196
cur table: 1184
epoch: 1000
next table: 1160
cur table: 1160
epoch: 1000
next table: 1192
cur table: 1196
epoch: 1000
next table: 1161
cur table: 1160
epoch: 1000
next table: 1195
cur table: 1192
epoch: 1000
next table: 1160
cur table: 1161
epoch: 1000
next table: 1193
cur table: 1195
epoch: 1000
next table: 1165
cur table: 1160
epoch: 1000
next table: 1195
cur table: 1193
epoch: 1000
next table: 1168
cur table: 1165
epoch: 1000
next table: 1198
cur table: 1195
epoch: 1000
next table: 1172
cur table: 1168
epoch: 1000
next table: 1198
cur table: 1198
epoch: 1000
next table: 1161
cur table: 1172
epoch: 1000
next table: 1194
cur table: 1198
epoch: 1000
next table: 1157
cur table: 1161
epoch: 1000
next table: 1185
cur table: 1194
epoch: 1000
next table: 1155
cur table: 1157
epoch: 1000
next table: 1197
cur table: 1185
epoch: 1000
next table: 1159
cur table: 1155
epoch: 1000
next table: 1184
cur table: 1197
epoch: 1000
next table: 1156
cur table: 1159
epoch: 1000
next table: 1189
cur table: 1184
epoch: 1000
next table: 1159
cur table: 1156
epoch: 1000
next table: 1181
cur table: 1189
epoch: 1000
next table: 1155
cur table: 1159
epoch: 1000
next table: 1189
cur table: 1181
epoch: 1000
next table: 1157
cur table: 1155
epoch: 1000
next table: 1184
cur table: 1189
epoch: 1000
next table: 1156
cur table: 1157
epoch: 1000
next table: 1190
cur table: 1184
epoch: 1000
next table: 1158
cur table: 1156
epoch: 1000
next table: 1185
cur table: 1190
epoch: 1000
next table: 1156
cur table: 1158
epoch: 1000
next table: 1189
cur table: 1185
epoch: 1000
next table: 1157
cur table: 1156
epoch: 1000
next table: 1186
cur table: 1189
epoch: 1000
next table: 1170
cur table: 1157
epoch: 1000
next table: 1190
cur table: 1186
epoch: 1000
next table: 1211
cur table: 1170
epoch: 1000
next table: 1185
cur table: 1190
epoch: 1000
next table: 1212
cur table: 1211
epoch: 1000
next table: 1190
cur table: 1185
epoch: 1000
next table: 1183
cur table: 1190
epoch: 1000
next table: 1216
cur table: 1212
epoch: 1000
next table: 1188
cur table: 1183
epoch: 1000
next table: 1216
cur table: 1216
epoch: 1000
next table: 1185
cur table: 1188
epoch: 1000
next table: 1192
cur table: 1185
epoch: 1000
next table: 1215
cur table: 1216
epoch: 1000
next table: 1192
cur table: 1192
epoch: 1000
next table: 1205
cur table: 1215
epoch: 1000
next table: 1191
cur table: 1192
epoch: 1000
next table: 1218
cur table: 1205
epoch: 1000
next table: 1182
cur table: 1191
epoch: 1000
next table: 1191
cur table: 1182
epoch: 1000
next table: 1212
cur table: 1218
epoch: 1000
next table: 1185
cur table: 1191
epoch: 1000
next table: 1214
cur table: 1212
epoch: 1000
next table: 1189
cur table: 1185
epoch: 1000
next table: 1213
cur table: 1214
epoch: 1000
next table: 1184
cur table: 1189
epoch: 1000
next table: 1189
cur table: 1184
epoch: 1000
next table: 1214
cur table: 1213
epoch: 1000
next table: 1183
cur table: 1189
epoch: 1000
next table: 1214
cur table: 1214
epoch: 1000
next table: 1185
cur table: 1183
epoch: 1000
next table: 1212
cur table: 1214
epoch: 1000
next table: 1181
cur table: 1185
epoch: 1000
next table: 1190
cur table: 1181
epoch: 1000
next table: 1218
cur table: 1212
epoch: 1000
next table: 1186
cur table: 1190
epoch: 1000
next table: 1212
cur table: 1218
epoch: 1000
next table: 1192
cur table: 1186
epoch: 1000
next table: 1208
cur table: 1212
epoch: 1000
next table: 1183
cur table: 1192
epoch: 1000
next table: 1198
cur table: 1183
epoch: 1000
next table: 1218
cur table: 1208
epoch: 1000
next table: 1188
cur table: 1198
epoch: 1000
next table: 1220
cur table: 1218
epoch: 1000
next table: 1202
cur table: 1188
epoch: 1000
next table: 1197
cur table: 1202
epoch: 1000
next table: 1224
cur table: 1220
epoch: 1000
next table: 1194
cur table: 1197
epoch: 1000
next table: 1228
cur table: 1224
epoch: 1000
next table: 1198
cur table: 1194
epoch: 1000
next table: 1233
cur table: 1228
epoch: 1000
next table: 1197
cur table: 1198
epoch: 1000
next table: 1192
cur table: 1197
epoch: 1000
next table: 1223
cur table: 1233
epoch: 1000
next table: 1199
cur table: 1192
epoch: 1000
next table: 1218
cur table: 1223
epoch: 1000
next table: 1187
cur table: 1199
epoch: 1000
next table: 1189
cur table: 1187
epoch: 1000
next table: 1326
cur table: 1218
epoch: 1000
next table: 1190
cur table: 1189
epoch: 1000
next table: 1192
cur table: 1190
epoch: 1000
next table: 1188
cur table: 1192
epoch: 1000
next table: 1526
cur table: 1326
epoch: 1000
next table: 1192
cur table: 1188
epoch: 1000
next table: 1188
cur table: 1192
epoch: 1000
next table: 1184
cur table: 1188
epoch: 1000
next table: 1191
cur table: 1184
epoch: 1000
next table: 1508
cur table: 1526
epoch: 1000
next table: 1189
cur table: 1191
epoch: 1000
next table: 1192
cur table: 1189
epoch: 1000
next table: 1184
cur table: 1192
epoch: 1000
next table: 1190
cur table: 1184
epoch: 1000
next table: 1186
cur table: 1190
epoch: 1000
next table: 1190
cur table: 1186
epoch: 1000
next table: 1184
cur table: 1190
epoch: 1000
next table: 1190
cur table: 1184
epoch: 1000
next table: 1180
cur table: 1190
epoch: 1000
next table: 1192
cur table: 1180
epoch: 1000
next table: 1184
cur table: 1192
epoch: 1000
next table: 1194
cur table: 1184
epoch: 1000
next table: 1185
cur table: 1194
epoch: 1000
next table: 1189
cur table: 1185
epoch: 1000
next table: 1181
cur table: 1189
epoch: 1000
next table: 1188
cur table: 1181
epoch: 1000
next table: 1181
cur table: 1188
epoch: 1000
next table: 1185
cur table: 1181
epoch: 1000
next table: 1182
cur table: 1185
epoch: 1000
next table: 1188
cur table: 1182
epoch: 1000
next table: 4221
cur table: 1508
epoch: 1000
next table: 1185
cur table: 1188
epoch: 1000
next table: 1186
cur table: 1185
epoch: 1000
next table: 1183
cur table: 1186
epoch: 1000
next table: 1183
cur table: 1183
epoch: 1000
next table: 1185
cur table: 1183
epoch: 1000
next table: 1194
cur table: 1185
epoch: 1000
next table: 1193
cur table: 1194
epoch: 1000
next table: 1198
cur table: 1193
epoch: 1000
next table: 1212
cur table: 1198
epoch: 1000
next table: 1196
cur table: 1212
epoch: 1000
next table: 1192
cur table: 1196
epoch: 1000
next table: 1184
cur table: 1192
epoch: 1000
next table: 1186
cur table: 1184
epoch: 1000
next table: 1189
cur table: 1186
epoch: 1000
next table: 1184
cur table: 1189
epoch: 1000
next table: 1188
cur table: 1184
epoch: 1000
next table: 1188
cur table: 1188
epoch: 1000
next table: 1190
cur table: 1188
epoch: 1000
next table: 1185
cur table: 1190
epoch: 1000
next table: 1193
cur table: 1185
epoch: 1000
next table: 1184
cur table: 1193
epoch: 1000
next table: 1193
cur table: 1184
epoch: 1000
next table: 1189
cur table: 1193
epoch: 1000
next table: 1189
cur table: 1189
epoch: 1000
next table: 1185
cur table: 1189
epoch: 1000
next table: 1190
cur table: 1185
epoch: 1000
next table: 1185
cur table: 1190
epoch: 1000
next table: 1185
cur table: 1185
epoch: 1000
next table: 1182
cur table: 1185
epoch: 1000
next table: 1184
cur table: 1182
epoch: 1000
next table: 1186
cur table: 1184
epoch: 1000
next table: 1189
cur table: 1186
epoch: 1000
next table: 1187
cur table: 1189
epoch: 1000
next table: 1189
cur table: 1187
epoch: 1000
next table: 1185
cur table: 1189
epoch: 1000
next table: 1192
cur table: 1185
epoch: 1000
next table: 1192
cur table: 1192
epoch: 1000
next table: 1184
cur table: 1192
Heartbeat CPU 0 instructions: 10000001 cycles: 3756050 heartbeat IPC: 2.66237 cumulative IPC: 2.66237 (Simulation time: 0 hr 7 min 15 sec) 
epoch: 1000
next table: 1186
cur table: 1184
epoch: 1000
next table: 1184
cur table: 1186
epoch: 1000
next table: 1181
cur table: 1184
epoch: 1000
next table: 1184
cur table: 1181
epoch: 1000
next table: 1189
cur table: 1184
epoch: 1000
next table: 1187
cur table: 1189
epoch: 1000
next table: 1191
cur table: 1187
epoch: 1000
next table: 1184
cur table: 1191
epoch: 1000
next table: 1187
cur table: 1184
epoch: 1000
next table: 1189
cur table: 1187
epoch: 1000
next table: 1193
cur table: 1189
epoch: 1000
next table: 1190
cur table: 1193
epoch: 1000
next table: 1198
cur table: 1190
epoch: 1000
next table: 1198
cur table: 1198
epoch: 1000
next table: 1204
cur table: 1198
epoch: 1000
next table: 1200
cur table: 1204
epoch: 1000
next table: 1188
cur table: 1200
epoch: 1000
next table: 1185
cur table: 1188
epoch: 1000
next table: 1188
cur table: 1185
epoch: 1000
next table: 1187
cur table: 1188
epoch: 1000
next table: 1190
cur table: 1187
epoch: 1000
next table: 1187
cur table: 1190
epoch: 1000
next table: 1189
cur table: 1187
epoch: 1000
next table: 1186
cur table: 1189
epoch: 1000
next table: 1186
cur table: 1186
epoch: 1000
next table: 1187
cur table: 1186
epoch: 1000
next table: 1187
cur table: 1187
epoch: 1000
next table: 1186
cur table: 1187
epoch: 1000
next table: 1189
cur table: 1186
epoch: 1000
next table: 1187
cur table: 1189
epoch: 1000
next table: 1187
cur table: 1187
epoch: 1000
next table: 1183
cur table: 1187
epoch: 1000
next table: 1184
cur table: 1183
epoch: 1000
next table: 1187
cur table: 1184
epoch: 1000
next table: 1190
cur table: 1187
epoch: 1000
next table: 1190
cur table: 1190
epoch: 1000
next table: 1185
cur table: 1190
epoch: 1000
next table: 1185
cur table: 1185
epoch: 1000
next table: 1185
cur table: 1185
epoch: 1000
next table: 1185
cur table: 1185
epoch: 1000
next table: 1188
cur table: 1185
epoch: 1000
next table: 1184
cur table: 1188
epoch: 1000
next table: 1185
cur table: 1184
epoch: 1000
next table: 1184
cur table: 1185
epoch: 1000
next table: 1182
cur table: 1184
epoch: 1000
next table: 1184
cur table: 1182
epoch: 1000
next table: 1186
cur table: 1184
epoch: 1000
next table: 1185
cur table: 1186
epoch: 1000
next table: 1189
cur table: 1185
epoch: 1000
next table: 1184
cur table: 1189
epoch: 1000
next table: 1190
cur table: 1184
epoch: 1000
next table: 1190
cur table: 1190
epoch: 1000
next table: 1205
cur table: 1190
epoch: 1000
next table: 1202
cur table: 1205
epoch: 1000
next table: 1198
cur table: 1202
epoch: 1000
next table: 1198
cur table: 1198
epoch: 1000
next table: 1187
cur table: 1198
epoch: 1000
next table: 1193
cur table: 1187
epoch: 1000
next table: 1190
cur table: 1193
epoch: 1000
next table: 1188
cur table: 1190
epoch: 1000
next table: 1181
cur table: 1188
epoch: 1000
next table: 1195
cur table: 1181
epoch: 1000
next table: 1184
cur table: 1195
epoch: 1000
next table: 1195
cur table: 1184
epoch: 1000
next table: 1185
cur table: 1195
epoch: 1000
next table: 1188
cur table: 1185
epoch: 1000
next table: 1184
cur table: 1188
epoch: 1000
next table: 1190
cur table: 1184
epoch: 1000
next table: 1184
cur table: 1190
epoch: 1000
next table: 1190
cur table: 1184
epoch: 1000
next table: 1184
cur table: 1190
epoch: 1000
next table: 1189
cur table: 1184
epoch: 1000
next table: 1182
cur table: 1189
epoch: 1000
next table: 1191
cur table: 1182
epoch: 1000
next table: 1185
cur table: 1191
epoch: 1000
next table: 1186
cur table: 1185
epoch: 1000
next table: 1185
cur table: 1186
epoch: 1000
next table: 1186
cur table: 1185
epoch: 1000
next table: 1182
cur table: 1186
epoch: 1000
next table: 1189
cur table: 1182
epoch: 1000
next table: 1185
cur table: 1189
epoch: 1000
next table: 1190
cur table: 1185
epoch: 1000
next table: 1184
cur table: 1190
epoch: 1000
next table: 1191
cur table: 1184
epoch: 1000
next table: 1185
cur table: 1191
epoch: 1000
next table: 1188
cur table: 1185
epoch: 1000
next table: 1186
cur table: 1188
epoch: 1000
next table: 1187
cur table: 1186
epoch: 1000
next table: 1187
cur table: 1187
epoch: 1000
next table: 1189
cur table: 1187
epoch: 1000
next table: 1182
cur table: 1189
epoch: 1000
next table: 1185
cur table: 1182
epoch: 1000
next table: 1188
cur table: 1185
epoch: 1000
next table: 1191
cur table: 1188
epoch: 1000
next table: 1195
cur table: 1191
epoch: 1000
next table: 1200
cur table: 1195
epoch: 1000
next table: 1193
cur table: 1200
epoch: 1000
next table: 1217
cur table: 1193
epoch: 1000
next table: 1185
cur table: 1217
epoch: 1000
next table: 22743
cur table: 4221
epoch: 1000
next table: 1410
cur table: 1185
epoch: 1000
next table: 1507
cur table: 22743
epoch: 1000
next table: 1531
cur table: 1410
epoch: 1000
next table: 1512
cur table: 1507
epoch: 1000
next table: 1530
cur table: 1531
epoch: 1000
next table: 1512
cur table: 1512
epoch: 1000
next table: 1527
cur table: 1530
epoch: 1000
next table: 1514
cur table: 1512
epoch: 1000
next table: 1530
cur table: 1527
epoch: 1000
next table: 1509
cur table: 1514
epoch: 1000
next table: 1531
cur table: 1530
epoch: 1000
next table: 1512
cur table: 1509
epoch: 1000
next table: 1529
cur table: 1531
epoch: 1000
next table: 1511
cur table: 1512
epoch: 1000
next table: 1531
cur table: 1529
epoch: 1000
next table: 1512
cur table: 1511
epoch: 1000
next table: 1527
cur table: 1531
epoch: 1000
next table: 1510
cur table: 1512
epoch: 1000
next table: 1529
cur table: 1527
epoch: 1000
next table: 1511
cur table: 1510
epoch: 1000
next table: 1530
cur table: 1529
epoch: 1000
next table: 1511
cur table: 1511
epoch: 1000
next table: 1533
cur table: 1530
epoch: 1000
next table: 1512
cur table: 1511
epoch: 1000
next table: 1524
cur table: 1533
epoch: 1000
next table: 1512
cur table: 1512
epoch: 1000
next table: 1531
cur table: 1524
epoch: 1000
next table: 1510
cur table: 1512
epoch: 1000
next table: 1530
cur table: 1531
epoch: 1000
next table: 1511
cur table: 1510
epoch: 1000
next table: 1535
cur table: 1530
epoch: 1000
next table: 1511
cur table: 1511
epoch: 1000
next table: 1522
cur table: 1535
epoch: 1000
next table: 1515
cur table: 1511
epoch: 1000
next table: 1531
cur table: 1522
epoch: 1000
next table: 1507
cur table: 1515
epoch: 1000
next table: 1529
cur table: 1531
epoch: 1000
next table: 1513
cur table: 1507
epoch: 1000
next table: 1533
cur table: 1529
epoch: 1000
next table: 1512
cur table: 1513
epoch: 1000
next table: 1524
cur table: 1533
epoch: 1000
next table: 1517
cur table: 1512
epoch: 1000
next table: 1530
cur table: 1524
epoch: 1000
next table: 1504
cur table: 1517
epoch: 1000
next table: 1529
cur table: 1530
epoch: 1000
next table: 1512
cur table: 1504
epoch: 1000
next table: 1533
cur table: 1529
epoch: 1000
next table: 1511
cur table: 1512
epoch: 1000
next table: 1525
cur table: 1533
epoch: 1000
next table: 1515
cur table: 1511
epoch: 1000
next table: 1530
cur table: 1525
epoch: 1000
next table: 1507
cur table: 1515
epoch: 1000
next table: 1531
cur table: 1530
epoch: 1000
next table: 1511
cur table: 1507
epoch: 1000
next table: 1529
cur table: 1531
epoch: 1000
next table: 1511
cur table: 1511
epoch: 1000
next table: 1529
cur table: 1529
epoch: 1000
next table: 1513
cur table: 1511
epoch: 1000
next table: 1529
cur table: 1529
epoch: 1000
next table: 1509
cur table: 1513
epoch: 1000
next table: 1530
cur table: 1529
epoch: 1000
next table: 1512
cur table: 1509
epoch: 1000
next table: 1530
cur table: 1530
epoch: 1000
next table: 1511
cur table: 1512
epoch: 1000
next table: 1530
cur table: 1530
epoch: 1000
next table: 1512
cur table: 1511
epoch: 1000
next table: 1526
cur table: 1530
epoch: 1000
next table: 1509
cur table: 1512
epoch: 1000
next table: 1531
cur table: 1526
epoch: 1000
next table: 1512
cur table: 1509
epoch: 1000
next table: 1530
cur table: 1531
epoch: 1000
next table: 1511
cur table: 1512
epoch: 1000
next table: 1533
cur table: 1530
epoch: 1000
next table: 1513
cur table: 1511
epoch: 1000
next table: 1525
cur table: 1533
epoch: 1000
next table: 1512
cur table: 1513
epoch: 1000
next table: 1530
cur table: 1525
epoch: 1000
next table: 1510
cur table: 1512
epoch: 1000
next table: 1530
cur table: 1530
epoch: 1000
next table: 1511
cur table: 1510
epoch: 1000
next table: 1534
cur table: 1530
epoch: 1000
next table: 1511
cur table: 1511
epoch: 1000
next table: 1524
cur table: 1534
epoch: 1000
next table: 1515
cur table: 1511
epoch: 1000
next table: 1529
cur table: 1524
epoch: 1000
next table: 1507
cur table: 1515
epoch: 1000
next table: 1531
cur table: 1529
epoch: 1000
next table: 1512
cur table: 1507
epoch: 1000
next table: 1533
cur table: 1531
epoch: 1000
next table: 1511
cur table: 1512
epoch: 1000
next table: 1523
cur table: 1533
epoch: 1000
next table: 1517
cur table: 1511
epoch: 1000
next table: 1530
cur table: 1523
epoch: 1000
next table: 1504
cur table: 1517
epoch: 1000
next table: 1531
cur table: 1530
epoch: 1000
next table: 1512
cur table: 1504
epoch: 1000
next table: 1532
cur table: 1531
epoch: 1000
next table: 1511
cur table: 1512
epoch: 1000
next table: 1525
cur table: 1532
epoch: 1000
next table: 1531
cur table: 1525
epoch: 1000
next table: 1792
cur table: 1511
epoch: 1000
next table: 1529
cur table: 1531
epoch: 1000
next table: 1531
cur table: 1529
epoch: 1000
next table: 2000
cur table: 1792
epoch: 1000
next table: 1528
cur table: 1531
epoch: 1000
next table: 1528
cur table: 1528
epoch: 1000
next table: 2000
cur table: 2000
epoch: 1000
next table: 1529
cur table: 1528
epoch: 1000
next table: 1531
cur table: 1529
epoch: 1000
next table: 2000
cur table: 2000
epoch: 1000
next table: 1528
cur table: 1531
epoch: 1000
next table: 1529
cur table: 1528
epoch: 1000
next table: 2000
cur table: 2000
epoch: 1000
next table: 1531
cur table: 1529
epoch: 1000
next table: 1529
cur table: 1531
epoch: 1000
next table: 2000
cur table: 2000
epoch: 1000
next table: 1531
cur table: 1529
epoch: 1000
next table: 2000
cur table: 2000
epoch: 1000
next table: 1527
cur table: 1531
epoch: 1000
next table: 1530
cur table: 1527
epoch: 1000
next table: 2000
cur table: 2000
epoch: 1000
next table: 1531
cur table: 1530
epoch: 1000
next table: 1533
cur table: 1531
epoch: 1000
next table: 2000
cur table: 2000
epoch: 1000
next table: 1522
cur table: 1533
epoch: 1000
next table: 1531
cur table: 1522
epoch: 1000
next table: 1580
cur table: 2000
epoch: 1000
next table: 1529
cur table: 1531
epoch: 1000
next table: 1512
cur table: 1580
epoch: 1000
next table: 1528
cur table: 1529
epoch: 1000
next table: 1514
cur table: 1512
epoch: 1000
next table: 1530
cur table: 1528
epoch: 1000
next table: 1507
cur table: 1514
epoch: 1000
next table: 1531
cur table: 1530
epoch: 1000
next table: 1511
cur table: 1507
epoch: 1000
next table: 1529
cur table: 1531
epoch: 1000
next table: 1512
cur table: 1511
epoch: 1000
next table: 1531
cur table: 1529
epoch: 1000
next table: 1517
cur table: 1512
epoch: 1000
next table: 1527
cur table: 1531
epoch: 1000
next table: 1505
cur table: 1517
epoch: 1000
next table: 1530
cur table: 1527
epoch: 1000
next table: 1511
cur table: 1505
epoch: 1000
next table: 1531
cur table: 1530
epoch: 1000
next table: 1511
cur table: 1511
epoch: 1000
next table: 1532
cur table: 1531
epoch: 1000
next table: 1515
cur table: 1511
epoch: 1000
next table: 1524
cur table: 1532
epoch: 1000
next table: 1507
cur table: 1515
epoch: 1000
next table: 1530
cur table: 1524
epoch: 1000
next table: 1512
cur table: 1507
epoch: 1000
next table: 1531
cur table: 1530
epoch: 1000
next table: 1511
cur table: 1512
epoch: 1000
next table: 1533
cur table: 1531
epoch: 1000
next table: 1513
cur table: 1511
epoch: 1000
next table: 1524
cur table: 1533
epoch: 1000
next table: 1508
cur table: 1513
epoch: 1000
next table: 1530
cur table: 1524
epoch: 1000
next table: 1513
cur table: 1508
epoch: 1000
next table: 1529
cur table: 1530
epoch: 1000
next table: 1511
cur table: 1513
epoch: 1000
next table: 1533
cur table: 1529
epoch: 1000
next table: 1512
cur table: 1511
epoch: 1000
next table: 1525
cur table: 1533
epoch: 1000
next table: 1510
cur table: 1512
epoch: 1000
next table: 1530
cur table: 1525
epoch: 1000
next table: 1512
cur table: 1510
epoch: 1000
next table: 1529
cur table: 1530
epoch: 1000
next table: 1511
cur table: 1512
epoch: 1000
next table: 1532
cur table: 1529
epoch: 1000
next table: 1512
cur table: 1511
epoch: 1000
next table: 1527
cur table: 1532
epoch: 1000
next table: 1512
cur table: 1512
epoch: 1000
next table: 1530
cur table: 1527
epoch: 1000
next table: 1510
cur table: 1512
epoch: 1000
next table: 1531
cur table: 1530
epoch: 1000
next table: 1512
cur table: 1510
epoch: 1000
next table: 1529
cur table: 1531
epoch: 1000
next table: 1511
cur table: 1512
epoch: 1000
next table: 1527
cur table: 1529
epoch: 1000
next table: 1514
cur table: 1511
epoch: 1000
next table: 1531
cur table: 1527
epoch: 1000
next table: 1508
cur table: 1514
epoch: 1000
next table: 1530
cur table: 1531
epoch: 1000
next table: 1511
cur table: 1508
epoch: 1000
next table: 1530
cur table: 1530
epoch: 1000
next table: 1511
cur table: 1511
epoch: 1000
next table: 1531
cur table: 1530
epoch: 1000
next table: 1517
cur table: 1511
epoch: 1000
next table: 1526
cur table: 1531
epoch: 1000
next table: 1505
cur table: 1517
epoch: 1000
next table: 1530
cur table: 1526
epoch: 1000
next table: 1512
cur table: 1505
epoch: 1000
next table: 1530
cur table: 1530
epoch: 1000
next table: 1512
cur table: 1512
epoch: 1000
next table: 1532
cur table: 1530
epoch: 1000
next table: 1514
cur table: 1512
epoch: 1000
next table: 1526
cur table: 1532
epoch: 1000
next table: 1507
cur table: 1514
epoch: 1000
next table: 1530
cur table: 1526
epoch: 1000
next table: 1512
cur table: 1507
epoch: 1000
next table: 1529
cur table: 1530
epoch: 1000
next table: 1511
cur table: 1512
epoch: 1000
next table: 1536
cur table: 1529
epoch: 1000
next table: 1513
cur table: 1511
epoch: 1000
next table: 1522
cur table: 1536
epoch: 1000
next table: 1509
cur table: 1513
epoch: 1000
next table: 1530
cur table: 1522
epoch: 1000
next table: 1511
cur table: 1509
epoch: 1000
next table: 1531
cur table: 1530
epoch: 1000
next table: 1511
cur table: 1511
epoch: 1000
next table: 1532
cur table: 1531
epoch: 1000
next table: 1512
cur table: 1511
epoch: 1000
next table: 1524
cur table: 1532
epoch: 1000
next table: 1510
cur table: 1512
epoch: 1000
next table: 1530
cur table: 1524
epoch: 1000
next table: 1512
cur table: 1510
epoch: 1000
next table: 1531
cur table: 1530
epoch: 1000
next table: 1511
cur table: 1512
epoch: 1000
next table: 1531
cur table: 1531
epoch: 1000
next table: 1511
cur table: 1511
epoch: 1000
next table: 1526
cur table: 1531
epoch: 1000
next table: 1512
cur table: 1511
epoch: 1000
next table: 1530
cur table: 1526
epoch: 1000
next table: 1511
cur table: 1512
epoch: 1000
next table: 1529
cur table: 1530
epoch: 1000
next table: 1511
cur table: 1511
epoch: 1000
next table: 1531
cur table: 1529
epoch: 1000
next table: 1512
cur table: 1511
epoch: 1000
next table: 1527
cur table: 1531
epoch: 1000
next table: 1514
cur table: 1512
epoch: 1000
next table: 1530
cur table: 1527
epoch: 1000
next table: 1507
cur table: 1514
epoch: 1000
next table: 1531
cur table: 1530
epoch: 1000
next table: 1512
cur table: 1507
epoch: 1000
next table: 1529
cur table: 1531
epoch: 1000
next table: 1511
cur table: 1512
epoch: 1000
next table: 1527
cur table: 1529
epoch: 1000
next table: 1517
cur table: 1511
epoch: 1000
next table: 1531
cur table: 1527
epoch: 1000
next table: 1506
cur table: 1517
epoch: 1000
next table: 1531
cur table: 1531
epoch: 1000
next table: 1512
cur table: 1506
epoch: 1000
next table: 1529
cur table: 1531
epoch: 1000
next table: 1511
cur table: 1512
epoch: 1000
next table: 1531
cur table: 1529
epoch: 1000
next table: 1516
cur table: 1511
epoch: 1000
next table: 1528
cur table: 1531
epoch: 1000
next table: 1506
cur table: 1516
epoch: 1000
next table: 1529
cur table: 1528
epoch: 1000
next table: 1511
cur table: 1506
epoch: 1000
next table: 1530
cur table: 1529
epoch: 1000
next table: 1511
cur table: 1511
epoch: 1000
next table: 1535
cur table: 1530
epoch: 1000
next table: 1514
cur table: 1511
epoch: 1000
next table: 1523
cur table: 1535
epoch: 1000
next table: 1508
cur table: 1514
epoch: 1000
next table: 1553
cur table: 1523
epoch: 1000
next table: 1532
cur table: 1508
epoch: 1000
next table: 1686
cur table: 1553
epoch: 1000
next table: 1655
cur table: 1532
epoch: 1000
next table: 1344
cur table: 1686
epoch: 1000
next table: 1497
cur table: 1655
epoch: 1000
next table: 1349
cur table: 1344
epoch: 1000
next table: 1332
cur table: 1349
epoch: 1000
next table: 1496
cur table: 1497
epoch: 1000
next table: 1344
cur table: 1332
epoch: 1000
next table: 1496
cur table: 1496
epoch: 1000
next table: 1337
cur table: 1344
epoch: 1000
next table: 1345
cur table: 1337
epoch: 1000
next table: 1495
cur table: 1496
epoch: 1000
next table: 1337
cur table: 1345
epoch: 1000
next table: 1499
cur table: 1495
epoch: 1000
next table: 1344
cur table: 1337
epoch: 1000
next table: 1345
cur table: 1344
epoch: 1000
next table: 1498
cur table: 1499
epoch: 1000
next table: 1337
cur table: 1345
epoch: 1000
next table: 1495
cur table: 1498
epoch: 1000
next table: 1340
cur table: 1337
epoch: 1000
next table: 1343
cur table: 1340
epoch: 1000
next table: 1500
cur table: 1495
epoch: 1000
next table: 1339
cur table: 1343
epoch: 1000
next table: 1340
cur table: 1339
epoch: 1000
next table: 1500
cur table: 1500
epoch: 1000
next table: 1342
cur table: 1340
epoch: 1000
next table: 1501
cur table: 1500
epoch: 1000
next table: 1352
cur table: 1342
epoch: 1000
next table: 1366
cur table: 1352
epoch: 1000
next table: 1519
cur table: 1501
epoch: 1000
next table: 1371
cur table: 1366
epoch: 1000
next table: 1521
cur table: 1519
epoch: 1000
next table: 1348
cur table: 1371
epoch: 1000
next table: 1343
cur table: 1348
epoch: 1000
next table: 1498
cur table: 1521
epoch: 1000
next table: 1347
cur table: 1343
epoch: 1000
next table: 1497
cur table: 1498
epoch: 1000
next table: 1334
cur table: 1347
epoch: 1000
next table: 1345
cur table: 1334
epoch: 1000
next table: 1498
cur table: 1497
epoch: 1000
next table: 1336
cur table: 1345
epoch: 1000
next table: 1495
cur table: 1498
epoch: 1000
next table: 1344
cur table: 1336
epoch: 1000
next table: 1347
cur table: 1344
epoch: 1000
next table: 1499
cur table: 1495
epoch: 1000
next table: 1338
cur table: 1347
epoch: 1000
next table: 1498
cur table: 1499
epoch: 1000
next table: 1339
cur table: 1338
epoch: 1000
next table: 1339
cur table: 1339
epoch: 1000
next table: 1496
cur table: 1498
epoch: 1000
next table: 1342
cur table: 1339
epoch: 1000
next table: 1496
cur table: 1496
epoch: 1000
next table: 1336
cur table: 1342
epoch: 1000
next table: 1345
cur table: 1336
epoch: 1000
next table: 1499
cur table: 1496
epoch: 1000
next table: 1345
cur table: 1345
epoch: 1000
next table: 1340
cur table: 1345
epoch: 1000
next table: 1506
cur table: 1499
epoch: 1000
next table: 1355
cur table: 1340
epoch: 1000
next table: 1516
cur table: 1506
epoch: 1000
next table: 1369
cur table: 1355
epoch: 1000
next table: 1366
cur table: 1369
epoch: 1000
next table: 1521
cur table: 1516
epoch: 1000
next table: 1350
cur table: 1366
epoch: 1000
next table: 1501
cur table: 1521
epoch: 1000
next table: 1333
cur table: 1350
epoch: 1000
next table: 1345
cur table: 1333
epoch: 1000
next table: 1498
cur table: 1501
epoch: 1000
next table: 1337
cur table: 1345
epoch: 1000
next table: 1493
cur table: 1498
epoch: 1000
next table: 1344
cur table: 1337
epoch: 1000
next table: 1337
cur table: 1344
epoch: 1000
next table: 1497
cur table: 1493
epoch: 1000
next table: 1346
cur table: 1337
epoch: 1000
next table: 1497
cur table: 1497
epoch: 1000
next table: 1343
cur table: 1346
epoch: 1000
next table: 1338
cur table: 1343
epoch: 1000
next table: 1499
cur table: 1497
epoch: 1000
next table: 1340
cur table: 1338
epoch: 1000
next table: 1497
cur table: 1499
epoch: 1000
next table: 1339
cur table: 1340
epoch: 1000
next table: 1342
cur table: 1339
epoch: 1000
next table: 1497
cur table: 1497
epoch: 1000
next table: 1337
cur table: 1342
epoch: 1000
next table: 1344
cur table: 1337
epoch: 1000
next table: 1498
cur table: 1497
epoch: 1000
next table: 1344
cur table: 1344
epoch: 1000
next table: 1504
cur table: 1498
epoch: 1000
next table: 1343
cur table: 1344
epoch: 1000
next table: 1361
cur table: 1343
epoch: 1000
next table: 1519
cur table: 1504
epoch: 1000
next table: 1371
cur table: 1361
epoch: 1000
next table: 1523
cur table: 1519
epoch: 1000
next table: 1360
cur table: 1371
epoch: 1000
next table: 1346
cur table: 1360
epoch: 1000
next table: 1497
cur table: 1523
epoch: 1000
next table: 1334
cur table: 1346
epoch: 1000
next table: 1495
cur table: 1497
epoch: 1000
next table: 1345
cur table: 1334
epoch: 1000
next table: 1337
cur table: 1345
epoch: 1000
next table: 1500
cur table: 1495
epoch: 1000
next table: 1345
cur table: 1337
epoch: 1000
next table: 1498
cur table: 1500
epoch: 1000
next table: 1337
cur table: 1345
epoch: 1000
next table: 1346
cur table: 1337
epoch: 1000
next table: 1499
cur table: 1498
epoch: 1000
next table: 1343
cur table: 1346
epoch: 1000
next table: 1492
cur table: 1499
epoch: 1000
next table: 1336
cur table: 1343
epoch: 1000
next table: 1341
cur table: 1336
epoch: 1000
next table: 1501
cur table: 1492
epoch: 1000
next table: 1338
cur table: 1341
epoch: 1000
next table: 1497
cur table: 1501
epoch: 1000
next table: 1344
cur table: 1338
epoch: 1000
next table: 1337
cur table: 1344
epoch: 1000
next table: 1498
cur table: 1497
epoch: 1000
next table: 1344
cur table: 1337
epoch: 1000
next table: 1345
cur table: 1344
epoch: 1000
next table: 1499
cur table: 1498
epoch: 1000
next table: 1348
cur table: 1345
epoch: 1000
next table: 1518
cur table: 1499
epoch: 1000
next table: 1362
cur table: 1348
epoch: 1000
next table: 1372
cur table: 1362
epoch: 1000
next table: 1530
cur table: 1518
epoch: 1000
next table: 1349
cur table: 1372
epoch: 1000
next table: 1346
cur table: 1349
epoch: 1000
next table: 1651
cur table: 1530
epoch: 1000
next table: 1335
cur table: 1346
epoch: 1000
next table: 1344
cur table: 1335
epoch: 1000
next table: 1336
cur table: 1344
epoch: 1000
next table: 2050
cur table: 1651
epoch: 1000
next table: 1348
cur table: 1336
epoch: 1000
next table: 1342
cur table: 1348
epoch: 1000
next table: 1338
cur table: 1342
epoch: 1000
next table: 2048
cur table: 2050
epoch: 1000
next table: 1342
cur table: 1338
epoch: 1000
next table: 1334
cur table: 1342
epoch: 1000
next table: 1341
cur table: 1334
epoch: 1000
next table: 2046
cur table: 2048
epoch: 1000
next table: 1337
cur table: 1341
epoch: 1000
next table: 1344
cur table: 1337
epoch: 1000
next table: 1339
cur table: 1344
epoch: 1000
next table: 1343
cur table: 1339
epoch: 1000
next table: 2048
cur table: 2046
epoch: 1000
next table: 1347
cur table: 1343
epoch: 1000
next table: 1359
cur table: 1347
epoch: 1000
next table: 1363
cur table: 1359
epoch: 1000
next table: 2048
cur table: 2048
epoch: 1000
next table: 1364
cur table: 1363
epoch: 1000
next table: 1344
cur table: 1364
epoch: 1000
next table: 1347
cur table: 1344
epoch: 1000
next table: 2047
cur table: 2048
epoch: 1000
next table: 1334
cur table: 1347
epoch: 1000
next table: 1345
cur table: 1334
epoch: 1000
next table: 1336
cur table: 1345
epoch: 1000
next table: 2045
cur table: 2047
epoch: 1000
next table: 1345
cur table: 1336
epoch: 1000
next table: 1339
cur table: 1345
epoch: 1000
next table: 1344
cur table: 1339
epoch: 1000
next table: 1342
cur table: 1344
epoch: 1000
next table: 2048
cur table: 2045
epoch: 1000
next table: 1338
cur table: 1342
epoch: 1000
next table: 1341
cur table: 1338
epoch: 1000
next table: 1337
cur table: 1341
epoch: 1000
next table: 2046
cur table: 2048
epoch: 1000
next table: 1344
cur table: 1337
epoch: 1000
next table: 1342
cur table: 1344
epoch: 1000
next table: 1340
cur table: 1342
epoch: 1000
next table: 2049
cur table: 2046
epoch: 1000
next table: 1350
cur table: 1340
epoch: 1000
next table: 1365
cur table: 1350
epoch: 1000
next table: 1370
cur table: 1365
epoch: 1000
next table: 2045
cur table: 2049
epoch: 1000
next table: 1358
cur table: 1370
epoch: 1000
next table: 1390
cur table: 2045
epoch: 1000
next table: 1287
cur table: 1358
epoch: 1000
next table: 1248
cur table: 1390
epoch: 1000
next table: 1271
cur table: 1287
epoch: 1000
next table: 1257
cur table: 1248
epoch: 1000
next table: 1269
cur table: 1271
epoch: 1000
next table: 1248
cur table: 1257
epoch: 1000
next table: 1274
cur table: 1269
epoch: 1000
next table: 1255
cur table: 1248
epoch: 1000
next table: 1267
cur table: 1274
epoch: 1000
next table: 1248
cur table: 1255
epoch: 1000
next table: 1277
cur table: 1267
epoch: 1000
next table: 1258
cur table: 1248
epoch: 1000
next table: 1264
cur table: 1277
epoch: 1000
next table: 1248
cur table: 1258
epoch: 1000
next table: 1275
cur table: 1264
epoch: 1000
next table: 1253
cur table: 1248
epoch: 1000
next table: 1265
cur table: 1275
epoch: 1000
next table: 1247
cur table: 1253
epoch: 1000
next table: 1274
cur table: 1265
epoch: 1000
next table: 1254
cur table: 1247
epoch: 1000
next table: 1321
cur table: 1274
epoch: 1000
next table: 1274
cur table: 1321
epoch: 1000
next table: 1290
cur table: 1254
epoch: 1000
next table: 1267
cur table: 1274
epoch: 1000
next table: 1330
cur table: 1290
epoch: 1000
next table: 1275
cur table: 1267
epoch: 1000
next table: 1321
cur table: 1330
epoch: 1000
next table: 1268
cur table: 1275
epoch: 1000
next table: 1328
cur table: 1321
epoch: 1000
next table: 1322
cur table: 1268
epoch: 1000
next table: 1274
cur table: 1322
epoch: 1000
next table: 1326
cur table: 1328
epoch: 1000
next table: 1267
cur table: 1274
epoch: 1000
next table: 1324
cur table: 1326
epoch: 1000
next table: 1275
cur table: 1267
epoch: 1000
next table: 1329
cur table: 1324
epoch: 1000
next table: 1267
cur table: 1275
epoch: 1000
next table: 1280
cur table: 1267
epoch: 1000
next table: 1334
cur table: 1329
epoch: 1000
next table: 1284
cur table: 1280
epoch: 1000
next table: 1347
cur table: 1334
epoch: 1000
next table: 1284
cur table: 1284
epoch: 1000
next table: 1358
cur table: 1347
epoch: 1000
next table: 1287
cur table: 1284
epoch: 1000
next table: 1276
cur table: 1287
epoch: 1000
next table: 1332
cur table: 1358
epoch: 1000
next table: 1266
cur table: 1276
epoch: 1000
next table: 1335
cur table: 1332
epoch: 1000
next table: 1275
cur table: 1266
epoch: 1000
next table: 1318
cur table: 1335
epoch: 1000
next table: 1266
cur table: 1275
epoch: 1000
next table: 1335
cur table: 1318
epoch: 1000
next table: 1329
cur table: 1266
epoch: 1000
next table: 1265
cur table: 1329
epoch: 1000
next table: 1319
cur table: 1335
epoch: 1000
next table: 1275
cur table: 1265
epoch: 1000
next table: 1328
cur table: 1319
epoch: 1000
next table: 1271
cur table: 1275
epoch: 1000
next table: 1323
cur table: 1328
epoch: 1000
next table: 1269
cur table: 1271
epoch: 1000
next table: 1320
cur table: 1269
epoch: 1000
next table: 1332
cur table: 1323
epoch: 1000
next table: 1266
cur table: 1320
epoch: 1000
next table: 1328
cur table: 1332
epoch: 1000
next table: 1274
cur table: 1266
epoch: 1000
next table: 1321
cur table: 1328
epoch: 1000
next table: 1268
cur table: 1274
epoch: 1000
next table: 1326
cur table: 1321
epoch: 1000
next table: 1270
cur table: 1268
epoch: 1000
next table: 1270
cur table: 1270
epoch: 1000
next table: 1326
cur table: 1326
epoch: 1000
next table: 1272
cur table: 1270
epoch: 1000
next table: 1324
cur table: 1326
epoch: 1000
next table: 1271
cur table: 1272
epoch: 1000
next table: 1326
cur table: 1324
epoch: 1000
next table: 1269
cur table: 1271
epoch: 1000
next table: 1272
cur table: 1269
epoch: 1000
next table: 1327
cur table: 1326
epoch: 1000
next table: 1269
cur table: 1272
epoch: 1000
next table: 1333
cur table: 1327
epoch: 1000
next table: 1282
cur table: 1269
epoch: 1000
next table: 1342
cur table: 1333
epoch: 1000
next table: 1274
cur table: 1282
epoch: 1000
next table: 1353
cur table: 1274
epoch: 1000
next table: 1345
cur table: 1342
epoch: 1000
next table: 1290
cur table: 1353
epoch: 1000
next table: 1349
cur table: 1345
epoch: 1000
next table: 1277
cur table: 1290
epoch: 1000
next table: 1328
cur table: 1349
epoch: 1000
next table: 1267
cur table: 1277
epoch: 1000
next table: 1274
cur table: 1267
epoch: 1000
next table: 1336
cur table: 1328
epoch: 1000
next table: 1315
cur table: 1274
epoch: 1000
next table: 1319
cur table: 1336
epoch: 1000
next table: 1276
cur table: 1315
epoch: 1000
next table: 1328
cur table: 1319
epoch: 1000
next table: 1261
cur table: 1276
epoch: 1000
next table: 1316
cur table: 1328
epoch: 1000
next table: 1274
cur table: 1261
epoch: 1000
next table: 1264
cur table: 1274
epoch: 1000
next table: 1330
cur table: 1316
epoch: 1000
next table: 1274
cur table: 1264
epoch: 1000
next table: 1321
cur table: 1330
epoch: 1000
next table: 1267
cur table: 1274
epoch: 1000
next table: 1330
cur table: 1321
epoch: 1000
next table: 1274
cur table: 1267
epoch: 1000
next table: 1266
cur table: 1274
epoch: 1000
next table: 1329
cur table: 1330
epoch: 1000
next table: 1274
cur table: 1266
epoch: 1000
next table: 1321
cur table: 1329
epoch: 1000
next table: 1268
cur table: 1274
epoch: 1000
next table: 1330
cur table: 1321
epoch: 1000
next table: 1273
cur table: 1268
epoch: 1000
next table: 1322
cur table: 1330
epoch: 1000
next table: 1269
cur table: 1273
epoch: 1000
next table: 1324
cur table: 1269
epoch: 1000
next table: 1327
cur table: 1322
Heartbeat CPU 0 instructions: 20000000 cycles: 7248728 heartbeat IPC: 2.86313 cumulative IPC: 2.7591 (Simulation time: 0 hr 11 min 29 sec) 
epoch: 1000
next table: 1274
cur table: 1324
epoch: 1000
next table: 1326
cur table: 1327
epoch: 1000
next table: 1267
cur table: 1274
epoch: 1000
next table: 1324
cur table: 1326
epoch: 1000
next table: 1277
cur table: 1267
epoch: 1000
next table: 1268
cur table: 1277
epoch: 1000
next table: 1336
cur table: 1324
epoch: 1000
next table: 1287
cur table: 1268
epoch: 1000
next table: 1345
cur table: 1336
epoch: 1000
next table: 1293
cur table: 1287
epoch: 1000
next table: 1357
cur table: 1345
epoch: 1000
next table: 1287
cur table: 1293
epoch: 1000
next table: 1277
cur table: 1287
epoch: 1000
next table: 1337
cur table: 1357
epoch: 1000
next table: 1273
cur table: 1277
epoch: 1000
next table: 1323
cur table: 1337
epoch: 1000
next table: 1267
cur table: 1273
epoch: 1000
next table: 1336
cur table: 1323
epoch: 1000
next table: 1274
cur table: 1267
epoch: 1000
next table: 1317
cur table: 1336
epoch: 1000
next table: 1266
cur table: 1274
epoch: 1000
next table: 1274
cur table: 1266
epoch: 1000
next table: 1330
cur table: 1317
epoch: 1000
next table: 1268
cur table: 1274
epoch: 1000
next table: 1415
cur table: 1330
epoch: 1000
next table: 1273
cur table: 1268
epoch: 1000
next table: 1275
cur table: 1273
epoch: 1000
next table: 1484
cur table: 1415
epoch: 1000
next table: 1266
cur table: 1275
epoch: 1000
next table: 1329
cur table: 1266
epoch: 1000
next table: 1497
cur table: 1484
epoch: 1000
next table: 1266
cur table: 1329
epoch: 1000
next table: 1274
cur table: 1266
epoch: 1000
next table: 1490
cur table: 1497
epoch: 1000
next table: 1266
cur table: 1274
epoch: 1000
next table: 1272
cur table: 1266
epoch: 1000
next table: 1526
cur table: 1490
epoch: 1000
next table: 1271
cur table: 1272
epoch: 1000
next table: 1321
cur table: 1271
epoch: 1000
next table: 1271
cur table: 1321
epoch: 1000
next table: 1270
cur table: 1271
epoch: 1000
next table: 2016
cur table: 1526
epoch: 1000
next table: 1273
cur table: 1270
epoch: 1000
next table: 1271
cur table: 1273
epoch: 1000
next table: 1283
cur table: 1271
epoch: 1000
next table: 1286
cur table: 1283
epoch: 1000
next table: 1283
cur table: 1286
epoch: 1000
next table: 1281
cur table: 1283
epoch: 1000
next table: 1275
cur table: 1281
epoch: 1000
next table: 1267
cur table: 1275
epoch: 1000
next table: 1276
cur table: 1267
epoch: 1000
next table: 1318
cur table: 1276
epoch: 1000
next table: 1274
cur table: 1318
epoch: 1000
next table: 1267
cur table: 1274
epoch: 1000
next table: 1273
cur table: 1267
epoch: 1000
next table: 1267
cur table: 1273
epoch: 1000
next table: 1275
cur table: 1267
epoch: 1000
next table: 1316
cur table: 1275
epoch: 1000
next table: 1273
cur table: 1316
epoch: 1000
next table: 1275
cur table: 1273
epoch: 1000
next table: 1266
cur table: 1275
epoch: 1000
next table: 1274
cur table: 1266
epoch: 1000
next table: 1266
cur table: 1274
epoch: 1000
next table: 1276
cur table: 1266
epoch: 1000
next table: 1265
cur table: 1276
epoch: 1000
next table: 1273
cur table: 1265
epoch: 1000
next table: 1270
cur table: 1273
epoch: 1000
next table: 1276
cur table: 1270
epoch: 1000
next table: 1284
cur table: 1276
epoch: 1000
next table: 1319
cur table: 1284
epoch: 1000
next table: 1313
cur table: 1319
epoch: 1000
next table: 1285
cur table: 1313
epoch: 1000
next table: 1267
cur table: 1285
epoch: 1000
next table: 1273
cur table: 1267
epoch: 1000
next table: 1270
cur table: 1273
epoch: 1000
next table: 1292
cur table: 1270
epoch: 1000
next table: 1275
cur table: 1292
epoch: 1000
next table: 1266
cur table: 1275
epoch: 1000
next table: 1276
cur table: 1266
epoch: 1000
next table: 1264
cur table: 1276
epoch: 1000
next table: 1275
cur table: 1264
epoch: 1000
next table: 1265
cur table: 1275
epoch: 1000
next table: 1275
cur table: 1265
epoch: 1000
next table: 1266
cur table: 1275
epoch: 1000
next table: 1275
cur table: 1266
epoch: 1000
next table: 1266
cur table: 1275
epoch: 1000
next table: 1275
cur table: 1266
epoch: 1000
next table: 1269
cur table: 1275
epoch: 1000
next table: 1324
cur table: 1269
epoch: 1000
next table: 1274
cur table: 1324
epoch: 1000
next table: 1268
cur table: 1274
epoch: 1000
next table: 1275
cur table: 1268
epoch: 1000
next table: 1271
cur table: 1275
epoch: 1000
next table: 1291
cur table: 1271
epoch: 1000
next table: 1291
cur table: 1291
epoch: 1000
next table: 1284
cur table: 1291
epoch: 1000
next table: 14723
cur table: 2016
epoch: 1000
next table: 1269
cur table: 1284
epoch: 1000
next table: 1230
cur table: 14723
epoch: 1000
next table: 1266
cur table: 1269
epoch: 1000
next table: 1255
cur table: 1230
epoch: 1000
next table: 1278
cur table: 1266
epoch: 1000
next table: 1245
cur table: 1255
epoch: 1000
next table: 1265
cur table: 1278
epoch: 1000
next table: 1253
cur table: 1245
epoch: 1000
next table: 1274
cur table: 1265
epoch: 1000
next table: 1244
cur table: 1253
epoch: 1000
next table: 1266
cur table: 1274
epoch: 1000
next table: 1255
cur table: 1244
epoch: 1000
next table: 1274
cur table: 1266
epoch: 1000
next table: 1245
cur table: 1255
epoch: 1000
next table: 1266
cur table: 1274
epoch: 1000
next table: 1252
cur table: 1245
epoch: 1000
next table: 1272
cur table: 1266
epoch: 1000
next table: 1248
cur table: 1252
epoch: 1000
next table: 1284
cur table: 1272
epoch: 1000
next table: 1253
cur table: 1248
epoch: 1000
next table: 1268
cur table: 1284
epoch: 1000
next table: 1247
cur table: 1253
epoch: 1000
next table: 1275
cur table: 1268
epoch: 1000
next table: 1253
cur table: 1247
epoch: 1000
next table: 1264
cur table: 1275
epoch: 1000
next table: 1248
cur table: 1253
epoch: 1000
next table: 1276
cur table: 1264
epoch: 1000
next table: 1251
cur table: 1248
epoch: 1000
next table: 1263
cur table: 1276
epoch: 1000
next table: 1249
cur table: 1251
epoch: 1000
next table: 1290
cur table: 1263
epoch: 1000
next table: 1248
cur table: 1249
epoch: 1000
next table: 1274
cur table: 1290
epoch: 1000
next table: 1254
cur table: 1248
epoch: 1000
next table: 1272
cur table: 1274
epoch: 1000
next table: 1247
cur table: 1254
epoch: 1000
next table: 1270
cur table: 1272
epoch: 1000
next table: 1254
cur table: 1247
epoch: 1000
next table: 1272
cur table: 1270
epoch: 1000
next table: 1247
cur table: 1254
epoch: 1000
next table: 1280
cur table: 1272
epoch: 1000
next table: 1258
cur table: 1247
epoch: 1000
next table: 1273
cur table: 1280
epoch: 1000
next table: 1265
cur table: 1258
epoch: 1000
next table: 1286
cur table: 1273
epoch: 1000
next table: 1261
cur table: 1265
epoch: 1000
next table: 1292
cur table: 1286
epoch: 1000
next table: 1261
cur table: 1261
epoch: 1000
next table: 1271
cur table: 1292
epoch: 1000
next table: 1255
cur table: 1261
epoch: 1000
next table: 1272
cur table: 1271
epoch: 1000
next table: 1246
cur table: 1255
epoch: 1000
next table: 1272
cur table: 1272
epoch: 1000
next table: 1253
cur table: 1246
epoch: 1000
next table: 1274
cur table: 1272
epoch: 1000
next table: 1245
cur table: 1253
epoch: 1000
next table: 1275
cur table: 1274
epoch: 1000
next table: 1251
cur table: 1245
epoch: 1000
next table: 1264
cur table: 1275
epoch: 1000
next table: 1244
cur table: 1251
epoch: 1000
next table: 1274
cur table: 1264
epoch: 1000
next table: 1253
cur table: 1244
epoch: 1000
next table: 1266
cur table: 1274
epoch: 1000
next table: 1248
cur table: 1253
epoch: 1000
next table: 1275
cur table: 1266
epoch: 1000
next table: 1251
cur table: 1248
epoch: 1000
next table: 1273
cur table: 1275
epoch: 1000
next table: 1250
cur table: 1251
epoch: 1000
next table: 1274
cur table: 1273
epoch: 1000
next table: 1250
cur table: 1250
epoch: 1000
next table: 1267
cur table: 1274
epoch: 1000
next table: 1250
cur table: 1250
epoch: 1000
next table: 1275
cur table: 1267
epoch: 1000
next table: 1247
cur table: 1250
epoch: 1000
next table: 1265
cur table: 1275
epoch: 1000
next table: 1252
cur table: 1247
epoch: 1000
next table: 1274
cur table: 1265
epoch: 1000
next table: 1247
cur table: 1252
epoch: 1000
next table: 1267
cur table: 1274
epoch: 1000
next table: 1251
cur table: 1247
epoch: 1000
next table: 1271
cur table: 1267
epoch: 1000
next table: 1248
cur table: 1251
epoch: 1000
next table: 1269
cur table: 1271
epoch: 1000
next table: 1248
cur table: 1248
epoch: 1000
next table: 1272
cur table: 1269
epoch: 1000
next table: 1250
cur table: 1248
epoch: 1000
next table: 1275
cur table: 1272
epoch: 1000
next table: 1252
cur table: 1250
epoch: 1000
next table: 1270
cur table: 1275
epoch: 1000
next table: 1260
cur table: 1252
epoch: 1000
next table: 1283
cur table: 1270
epoch: 1000
next table: 1255
cur table: 1260
epoch: 1000
next table: 1289
cur table: 1283
epoch: 1000
next table: 1267
cur table: 1255
epoch: 1000
next table: 1286
cur table: 1289
epoch: 1000
next table: 1266
cur table: 1267
epoch: 1000
next table: 1282
cur table: 1286
epoch: 1000
next table: 1250
cur table: 1266
epoch: 1000
next table: 1277
cur table: 1282
epoch: 1000
next table: 1263
cur table: 1277
epoch: 1000
next table: 1339
cur table: 1250
epoch: 1000
next table: 1289
cur table: 1263
epoch: 1000
next table: 1339
cur table: 1339
epoch: 1000
next table: 1271
cur table: 1289
epoch: 1000
next table: 1340
cur table: 1339
epoch: 1000
next table: 1274
cur table: 1271
epoch: 1000
next table: 1267
cur table: 1274
epoch: 1000
next table: 1340
cur table: 1340
epoch: 1000
next table: 1274
cur table: 1267
epoch: 1000
next table: 1335
cur table: 1340
epoch: 1000
next table: 1267
cur table: 1274
epoch: 1000
next table: 1341
cur table: 1335
epoch: 1000
next table: 1273
cur table: 1267
epoch: 1000
next table: 1268
cur table: 1273
epoch: 1000
next table: 1339
cur table: 1341
epoch: 1000
next table: 1273
cur table: 1268
epoch: 1000
next table: 1275
cur table: 1273
epoch: 1000
next table: 1263
cur table: 1275
epoch: 1000
next table: 1838
cur table: 1339
epoch: 1000
next table: 1274
cur table: 1263
epoch: 1000
next table: 1267
cur table: 1274
epoch: 1000
next table: 1285
cur table: 1267
epoch: 1000
next table: 1789
cur table: 1838
epoch: 1000
next table: 1265
cur table: 1285
epoch: 1000
next table: 1274
cur table: 1265
epoch: 1000
next table: 1268
cur table: 1274
epoch: 1000
next table: 1275
cur table: 1268
epoch: 1000
next table: 1283
cur table: 1275
epoch: 1000
next table: 2281
cur table: 1789
epoch: 1000
next table: 1286
cur table: 1283
epoch: 1000
next table: 1291
cur table: 1286
epoch: 1000
next table: 1287
cur table: 1291
epoch: 1000
next table: 1269
cur table: 1287
epoch: 1000
next table: 1273
cur table: 1269
epoch: 1000
next table: 1267
cur table: 1273
epoch: 1000
next table: 2451
cur table: 2281
epoch: 1000
next table: 1273
cur table: 1267
epoch: 1000
next table: 1271
cur table: 1273
epoch: 1000
next table: 1270
cur table: 1271
epoch: 1000
next table: 1822
cur table: 2451
epoch: 1000
next table: 1272
cur table: 1270
epoch: 1000
next table: 1269
cur table: 1272
epoch: 1000
next table: 1273
cur table: 1269
epoch: 1000
next table: 1275
cur table: 1273
epoch: 1000
next table: 2011
cur table: 1822
epoch: 1000
next table: 1272
cur table: 1275
epoch: 1000
next table: 1267
cur table: 1272
epoch: 1000
next table: 1272
cur table: 1267
epoch: 1000
next table: 1270
cur table: 1272
epoch: 1000
next table: 1271
cur table: 1270
epoch: 1000
next table: 2131
cur table: 2011
epoch: 1000
next table: 1283
cur table: 1271
epoch: 1000
next table: 1277
cur table: 1283
epoch: 1000
next table: 1271
cur table: 1277
epoch: 1000
next table: 1269
cur table: 1271
epoch: 1000
next table: 1931
cur table: 2131
epoch: 1000
next table: 1276
cur table: 1269
epoch: 1000
next table: 1274
cur table: 1276
epoch: 1000
next table: 1286
cur table: 1274
epoch: 1000
next table: 1292
cur table: 1286
epoch: 1000
next table: 2247
cur table: 1931
epoch: 1000
next table: 1279
cur table: 1292
epoch: 1000
next table: 1273
cur table: 1279
epoch: 1000
next table: 1276
cur table: 1273
epoch: 1000
next table: 1264
cur table: 1276
epoch: 1000
next table: 1279
cur table: 1264
epoch: 1000
next table: 2087
cur table: 2247
epoch: 1000
next table: 1265
cur table: 1279
epoch: 1000
next table: 1275
cur table: 1265
epoch: 1000
next table: 1267
cur table: 1275
epoch: 1000
next table: 1274
cur table: 1267
epoch: 1000
next table: 2097
cur table: 2087
epoch: 1000
next table: 1266
cur table: 1274
epoch: 1000
next table: 1285
cur table: 1266
epoch: 1000
next table: 1271
cur table: 1285
epoch: 1000
next table: 1272
cur table: 1271
epoch: 1000
next table: 1909
cur table: 2097
epoch: 1000
next table: 1271
cur table: 1272
epoch: 1000
next table: 1269
cur table: 1271
epoch: 1000
next table: 1274
cur table: 1269
epoch: 1000
next table: 1267
cur table: 1274
epoch: 1000
next table: 2057
cur table: 1909
epoch: 1000
next table: 1273
cur table: 1267
epoch: 1000
next table: 1266
cur table: 1273
epoch: 1000
next table: 1274
cur table: 1266
epoch: 1000
next table: 1268
cur table: 1274
epoch: 1000
next table: 1278
cur table: 1268
epoch: 1000
next table: 2358
cur table: 2057
epoch: 1000
next table: 1287
cur table: 1278
epoch: 1000
next table: 1283
cur table: 1287
epoch: 1000
next table: 1289
cur table: 1283
epoch: 1000
next table: 1280
cur table: 1289
epoch: 1000
next table: 1265
cur table: 1280
epoch: 1000
next table: 2306
cur table: 2358
epoch: 1000
next table: 1277
cur table: 1265
epoch: 1000
next table: 1273
cur table: 1277
epoch: 1000
next table: 1275
cur table: 1273
epoch: 1000
next table: 1263
cur table: 1275
epoch: 1000
next table: 1274
cur table: 1263
epoch: 1000
next table: 2156
cur table: 2306
epoch: 1000
next table: 1269
cur table: 1274
epoch: 1000
next table: 1272
cur table: 1269
epoch: 1000
next table: 1273
cur table: 1272
epoch: 1000
next table: 1267
cur table: 1273
epoch: 1000
next table: 1273
cur table: 1267
epoch: 1000
next table: 2275
cur table: 2156
epoch: 1000
next table: 1265
cur table: 1273
epoch: 1000
next table: 1274
cur table: 1265
epoch: 1000
next table: 1266
cur table: 1274
epoch: 1000
next table: 1279
cur table: 1266
epoch: 1000
next table: 1965
cur table: 2275
epoch: 1000
next table: 1268
cur table: 1279
epoch: 1000
next table: 1272
cur table: 1268
epoch: 1000
next table: 1268
cur table: 1272
epoch: 1000
next table: 1273
cur table: 1268
epoch: 1000
next table: 1280
cur table: 1273
epoch: 1000
next table: 2351
cur table: 1965
epoch: 1000
next table: 1282
cur table: 1280
epoch: 1000
next table: 1288
cur table: 1282
epoch: 1000
next table: 1293
cur table: 1288
epoch: 1000
next table: 1272
cur table: 1293
epoch: 1000
next table: 1906
cur table: 2351
epoch: 1000
next table: 1139
cur table: 1272
epoch: 1000
next table: 1047
cur table: 1906
epoch: 1000
next table: 1051
cur table: 1139
epoch: 1000
next table: 1057
cur table: 1051
epoch: 1000
next table: 1045
cur table: 1047
epoch: 1000
next table: 1050
cur table: 1057
epoch: 1000
next table: 1038
cur table: 1045
epoch: 1000
next table: 1055
cur table: 1050
epoch: 1000
next table: 1045
cur table: 1038
epoch: 1000
next table: 1053
cur table: 1055
epoch: 1000
next table: 1045
cur table: 1045
epoch: 1000
next table: 1050
cur table: 1053
epoch: 1000
next table: 1042
cur table: 1045
epoch: 1000
next table: 1055
cur table: 1050
epoch: 1000
next table: 1053
cur table: 1055
epoch: 1000
next table: 1042
cur table: 1042
epoch: 1000
next table: 1052
cur table: 1053
epoch: 1000
next table: 1044
cur table: 1042
epoch: 1000
next table: 1053
cur table: 1052
epoch: 1000
next table: 1042
cur table: 1044
epoch: 1000
next table: 1053
cur table: 1053
epoch: 1000
next table: 1041
cur table: 1042
epoch: 1000
next table: 1054
cur table: 1053
epoch: 1000
next table: 1051
cur table: 1054
epoch: 1000
next table: 1045
cur table: 1041
epoch: 1000
next table: 1054
cur table: 1051
epoch: 1000
next table: 1044
cur table: 1045
epoch: 1000
next table: 1052
cur table: 1054
epoch: 1000
next table: 1041
cur table: 1044
epoch: 1000
next table: 1051
cur table: 1052
epoch: 1000
next table: 1045
cur table: 1041
epoch: 1000
next table: 1054
cur table: 1051
epoch: 1000
next table: 1053
cur table: 1054
epoch: 1000
next table: 1041
cur table: 1045
epoch: 1000
next table: 1051
cur table: 1053
epoch: 1000
next table: 1044
cur table: 1041
epoch: 1000
next table: 1055
cur table: 1051
epoch: 1000
next table: 1042
cur table: 1044
epoch: 1000
next table: 1053
cur table: 1055
epoch: 1000
next table: 1043
cur table: 1042
epoch: 1000
next table: 1050
cur table: 1053
epoch: 1000
next table: 1059
cur table: 1050
epoch: 1000
next table: 1043
cur table: 1043
epoch: 1000
next table: 1050
cur table: 1059
epoch: 1000
next table: 1045
cur table: 1043
epoch: 1000
next table: 1051
cur table: 1050
epoch: 1000
next table: 1041
cur table: 1045
epoch: 1000
next table: 1057
cur table: 1051
epoch: 1000
next table: 1045
cur table: 1041
epoch: 1000
next table: 1054
cur table: 1057
epoch: 1000
next table: 1057
cur table: 1054
epoch: 1000
next table: 1046
cur table: 1045
epoch: 1000
next table: 1059
cur table: 1057
epoch: 1000
next table: 1050
cur table: 1046
epoch: 1000
next table: 1055
cur table: 1059
epoch: 1000
next table: 1046
cur table: 1050
epoch: 1000
next table: 1057
cur table: 1055
epoch: 1000
next table: 1044
cur table: 1046
epoch: 1000
next table: 1049
cur table: 1057
epoch: 1000
next table: 1054
cur table: 1049
epoch: 1000
next table: 1038
cur table: 1044
epoch: 1000
next table: 1057
cur table: 1054
epoch: 1000
next table: 1046
cur table: 1038
epoch: 1000
next table: 1051
cur table: 1057
epoch: 1000
next table: 1043
cur table: 1046
epoch: 1000
next table: 1049
cur table: 1051
epoch: 1000
next table: 1040
cur table: 1043
epoch: 1000
next table: 1057
cur table: 1049
epoch: 1000
next table: 1051
cur table: 1057
epoch: 1000
next table: 1047
cur table: 1040
epoch: 1000
next table: 1052
cur table: 1051
epoch: 1000
next table: 1044
cur table: 1047
epoch: 1000
next table: 1057
cur table: 1052
epoch: 1000
next table: 1042
cur table: 1044
epoch: 1000
next table: 1051
cur table: 1057
epoch: 1000
next table: 1041
cur table: 1042
epoch: 1000
next table: 1052
cur table: 1051
epoch: 1000
next table: 1054
cur table: 1052
epoch: 1000
next table: 1045
cur table: 1041
epoch: 1000
next table: 1055
cur table: 1054
epoch: 1000
next table: 1042
cur table: 1045
epoch: 1000
next table: 1051
cur table: 1055
epoch: 1000
next table: 1045
cur table: 1042
epoch: 1000
next table: 1053
cur table: 1051
epoch: 1000
next table: 1044
cur table: 1045
epoch: 1000
next table: 1055
cur table: 1053
epoch: 1000
next table: 1054
cur table: 1055
epoch: 1000
next table: 1041
cur table: 1044
epoch: 1000
next table: 1051
cur table: 1054
epoch: 1000
next table: 1043
cur table: 1041
epoch: 1000
next table: 1055
cur table: 1051
epoch: 1000
next table: 1045
cur table: 1043
epoch: 1000
next table: 1053
cur table: 1055
epoch: 1000
next table: 1043
cur table: 1045
epoch: 1000
next table: 1054
cur table: 1053
epoch: 1000
next table: 1053
cur table: 1054
epoch: 1000
next table: 1044
cur table: 1043
epoch: 1000
next table: 1055
cur table: 1053
epoch: 1000
next table: 1046
cur table: 1044
epoch: 1000
next table: 1051
cur table: 1055
epoch: 1000
next table: 1038
cur table: 1046
epoch: 1000
next table: 1051
cur table: 1051
epoch: 1000
next table: 1041
cur table: 1038
epoch: 1000
next table: 1056
cur table: 1051
epoch: 1000
next table: 1053
cur table: 1056
epoch: 1000
next table: 1049
cur table: 1041
epoch: 1000
next table: 1057
cur table: 1053
epoch: 1000
next table: 1040
cur table: 1049
epoch: 1000
next table: 1054
cur table: 1057
epoch: 1000
next table: 1052
cur table: 1040
epoch: 1000
next table: 1058
cur table: 1054
epoch: 1000
next table: 1044
cur table: 1052
epoch: 1000
next table: 1058
cur table: 1058
epoch: 1000
next table: 1057
cur table: 1058
epoch: 1000
next table: 1047
cur table: 1044
epoch: 1000
next table: 1051
cur table: 1057
epoch: 1000
next table: 1046
cur table: 1047
epoch: 1000
next table: 1055
cur table: 1051
epoch: 1000
next table: 1045
cur table: 1046
epoch: 1000
next table: 1056
cur table: 1055
epoch: 1000
next table: 1042
cur table: 1045
epoch: 1000
next table: 1051
cur table: 1056
epoch: 1000
next table: 1056
cur table: 1051
epoch: 1000
next table: 1047
cur table: 1042
epoch: 1000
next table: 1055
cur table: 1056
epoch: 1000
next table: 1046
cur table: 1047
epoch: 1000
next table: 1051
cur table: 1055
epoch: 1000
next table: 1040
cur table: 1046
epoch: 1000
next table: 1054
cur table: 1051
epoch: 1000
next table: 1048
cur table: 1040
epoch: 1000
next table: 1055
cur table: 1054
epoch: 1000
next table: 1053
cur table: 1055
epoch: 1000
next table: 1042
cur table: 1048
epoch: 1000
next table: 1052
cur table: 1053
epoch: 1000
next table: 1042
cur table: 1042
epoch: 1000
next table: 1056
cur table: 1052
epoch: 1000
next table: 1044
cur table: 1042
epoch: 1000
next table: 1051
cur table: 1056
epoch: 1000
next table: 1043
cur table: 1044
epoch: 1000
next table: 1051
cur table: 1051
epoch: 1000
next table: 1057
cur table: 1051
epoch: 1000
next table: 1045
cur table: 1043
epoch: 1000
next table: 1053
cur table: 1057
epoch: 1000
next table: 1054
cur table: 1045
epoch: 1000
next table: 1051
cur table: 1053
epoch: 1000
next table: 1057
cur table: 1051
epoch: 1000
next table: 1059
cur table: 1054
epoch: 1000
next table: 1053
cur table: 1057
epoch: 1000
next table: 1052
cur table: 1053
epoch: 1000
next table: 1065
cur table: 1059
epoch: 1000
next table: 1059
cur table: 1052
epoch: 1000
next table: 1051
cur table: 1059
epoch: 1000
next table: 1083
cur table: 1065
epoch: 1000
next table: 1052
cur table: 1051
epoch: 1000
next table: 1058
cur table: 1052
epoch: 1000
next table: 1051
cur table: 1058
epoch: 1000
next table: 1105
cur table: 1083
epoch: 1000
next table: 1055
cur table: 1051
epoch: 1000
next table: 1055
cur table: 1055
epoch: 1000
next table: 1061
cur table: 1055
epoch: 1000
next table: 1059
cur table: 1061
epoch: 1000
next table: 1060
cur table: 1059
epoch: 1000
next table: 1170
cur table: 1105
epoch: 1000
next table: 1052
cur table: 1060
epoch: 1000
next table: 1049
cur table: 1052
epoch: 1000
next table: 1052
cur table: 1049
epoch: 1000
next table: 1059
cur table: 1052
epoch: 1000
next table: 1051
cur table: 1059
epoch: 1000
next table: 1179
cur table: 1170
epoch: 1000
next table: 1051
cur table: 1051
epoch: 1000
next table: 1059
cur table: 1051
epoch: 1000
next table: 1051
cur table: 1059
epoch: 1000
next table: 1054
cur table: 1051
epoch: 1000
next table: 1055
cur table: 1054
epoch: 1000
next table: 1172
cur table: 1179
epoch: 1000
next table: 1051
cur table: 1055
epoch: 1000
next table: 1056
cur table: 1051
epoch: 1000
next table: 1054
cur table: 1056
epoch: 1000
next table: 1051
cur table: 1054
epoch: 1000
next table: 1056
cur table: 1051
epoch: 1000
next table: 1184
cur table: 1172
epoch: 1000
next table: 1054
cur table: 1056
epoch: 1000
next table: 1053
cur table: 1054
epoch: 1000
next table: 1054
cur table: 1053
epoch: 1000
next table: 1056
cur table: 1054
epoch: 1000
next table: 1054
cur table: 1056
epoch: 1000
next table: 1175
cur table: 1184
epoch: 1000
next table: 1052
cur table: 1054
epoch: 1000
next table: 1056
cur table: 1052
epoch: 1000
next table: 1055
cur table: 1056
epoch: 1000
next table: 1050
cur table: 1055
epoch: 1000
next table: 1055
cur table: 1050
epoch: 1000
next table: 1184
cur table: 1175
epoch: 1000
next table: 1055
cur table: 1055
epoch: 1000
next table: 1050
cur table: 1055
epoch: 1000
next table: 1061
cur table: 1050
epoch: 1000
next table: 1056
cur table: 1061
epoch: 1000
next table: 1056
cur table: 1056
epoch: 1000
next table: 1184
cur table: 1184
epoch: 1000
next table: 1059
cur table: 1056
epoch: 1000
next table: 1058
cur table: 1059
epoch: 1000
next table: 1055
cur table: 1058
epoch: 1000
next table: 1051
cur table: 1055
epoch: 1000
next table: 1052
cur table: 1051
epoch: 1000
next table: 1181
cur table: 1184
epoch: 1000
next table: 1056
cur table: 1052
epoch: 1000
next table: 1050
cur table: 1056
epoch: 1000
next table: 1055
cur table: 1050
epoch: 1000
next table: 1054
cur table: 1055
epoch: 1000
next table: 1052
cur table: 1054
epoch: 1000
next table: 1184
cur table: 1181
epoch: 1000
next table: 1054
cur table: 1052
epoch: 1000
next table: 1053
cur table: 1054
epoch: 1000
next table: 1053
cur table: 1053
epoch: 1000
next table: 1053
cur table: 1053
epoch: 1000
next table: 1053
cur table: 1053
epoch: 1000
next table: 1052
cur table: 1053
epoch: 1000
next table: 1184
cur table: 1184
epoch: 1000
next table: 1053
cur table: 1052
epoch: 1000
next table: 1054
cur table: 1053
epoch: 1000
next table: 1056
cur table: 1054
epoch: 1000
next table: 1049
cur table: 1056
Heartbeat CPU 0 instructions: 30000003 cycles: 10665450 heartbeat IPC: 2.92678 cumulative IPC: 2.81282 (Simulation time: 0 hr 14 min 58 sec) 
epoch: 1000
next table: 1054
cur table: 1049
epoch: 1000
next table: 1192
cur table: 1184
epoch: 1000
next table: 1056
cur table: 1054
epoch: 1000
next table: 1050
cur table: 1056
epoch: 1000
next table: 1054
cur table: 1050
epoch: 1000
next table: 1054
cur table: 1054
epoch: 1000
next table: 1052
cur table: 1054
epoch: 1000
next table: 1053
cur table: 1052
epoch: 1000
next table: 1193
cur table: 1192
epoch: 1000
next table: 1053
cur table: 1053
epoch: 1000
next table: 1056
cur table: 1053
epoch: 1000
next table: 1053
cur table: 1056
epoch: 1000
next table: 1058
cur table: 1053
epoch: 1000
next table: 1053
cur table: 1058
epoch: 1000
next table: 1189
cur table: 1193
epoch: 1000
next table: 1059
cur table: 1053
epoch: 1000
next table: 1053
cur table: 1059
epoch: 1000
next table: 1061
cur table: 1053
epoch: 1000
next table: 1051
cur table: 1061
epoch: 1000
next table: 1052
cur table: 1051
epoch: 1000
next table: 1187
cur table: 1189
epoch: 1000
next table: 1056
cur table: 1052
epoch: 1000
next table: 1051
cur table: 1056
epoch: 1000
next table: 1053
cur table: 1051
epoch: 1000
next table: 1055
cur table: 1053
epoch: 1000
next table: 1051
cur table: 1055
epoch: 1000
next table: 1050
cur table: 1051
epoch: 1000
next table: 1188
cur table: 1187
epoch: 1000
next table: 1055
cur table: 1050
epoch: 1000
next table: 1053
cur table: 1055
epoch: 1000
next table: 1050
cur table: 1053
epoch: 1000
next table: 1055
cur table: 1050
epoch: 1000
next table: 1053
cur table: 1055
epoch: 1000
next table: 1050
cur table: 1053
epoch: 1000
next table: 1203
cur table: 1188
epoch: 1000
next table: 1056
cur table: 1050
epoch: 1000
next table: 1053
cur table: 1056
epoch: 1000
next table: 1048
cur table: 1053
epoch: 1000
next table: 1057
cur table: 1048
epoch: 1000
next table: 1053
cur table: 1057
epoch: 1000
next table: 1048
cur table: 1053
epoch: 1000
next table: 1203
cur table: 1203
epoch: 1000
next table: 1057
cur table: 1048
epoch: 1000
next table: 1055
cur table: 1057
epoch: 1000
next table: 1046
cur table: 1055
epoch: 1000
next table: 1061
cur table: 1046
epoch: 1000
next table: 1051
cur table: 1061
epoch: 1000
next table: 1048
cur table: 1051
epoch: 1000
next table: 1058
cur table: 1048
epoch: 1000
next table: 1059
cur table: 1058
epoch: 1000
next table: 1059
cur table: 1059
epoch: 1000
next table: 1055
cur table: 1059
epoch: 1000
next table: 1054
cur table: 1055
epoch: 1000
next table: 1394
cur table: 1203
epoch: 1000
next table: 1061
cur table: 1054
epoch: 1000
next table: 1033
cur table: 1394
epoch: 1000
next table: 1052
cur table: 1061
epoch: 1000
next table: 1026
cur table: 1033
epoch: 1000
next table: 1044
cur table: 1052
epoch: 1000
next table: 1033
cur table: 1026
epoch: 1000
next table: 1051
cur table: 1044
epoch: 1000
next table: 1032
cur table: 1033
epoch: 1000
next table: 1051
cur table: 1051
epoch: 1000
next table: 1032
cur table: 1032
epoch: 1000
next table: 1048
cur table: 1051
epoch: 1000
next table: 1029
cur table: 1032
epoch: 1000
next table: 1048
cur table: 1048
epoch: 1000
next table: 1031
cur table: 1029
epoch: 1000
next table: 1049
cur table: 1048
epoch: 1000
next table: 1033
cur table: 1031
epoch: 1000
next table: 1046
cur table: 1049
epoch: 1000
next table: 1030
cur table: 1033
epoch: 1000
next table: 1054
cur table: 1046
epoch: 1000
next table: 1034
cur table: 1030
epoch: 1000
next table: 1048
cur table: 1054
epoch: 1000
next table: 1030
cur table: 1034
epoch: 1000
next table: 1047
cur table: 1048
epoch: 1000
next table: 1034
cur table: 1030
epoch: 1000
next table: 1052
cur table: 1047
epoch: 1000
next table: 1031
cur table: 1034
epoch: 1000
next table: 1047
cur table: 1052
epoch: 1000
next table: 1033
cur table: 1031
epoch: 1000
next table: 1053
cur table: 1047
epoch: 1000
next table: 1027
cur table: 1033
epoch: 1000
next table: 1045
cur table: 1053
epoch: 1000
next table: 1033
cur table: 1027
epoch: 1000
next table: 1051
cur table: 1045
epoch: 1000
next table: 1035
cur table: 1033
epoch: 1000
next table: 1054
cur table: 1051
epoch: 1000
next table: 1035
cur table: 1035
epoch: 1000
next table: 1051
cur table: 1054
epoch: 1000
next table: 1033
cur table: 1035
epoch: 1000
next table: 1049
cur table: 1051
epoch: 1000
next table: 1027
cur table: 1033
epoch: 1000
next table: 1048
cur table: 1049
epoch: 1000
next table: 1032
cur table: 1027
epoch: 1000
next table: 1051
cur table: 1048
epoch: 1000
next table: 1030
cur table: 1032
epoch: 1000
next table: 1048
cur table: 1051
epoch: 1000
next table: 1037
cur table: 1030
epoch: 1000
next table: 1051
cur table: 1048
epoch: 1000
next table: 1029
cur table: 1037
epoch: 1000
next table: 1049
cur table: 1051
epoch: 1000
next table: 1033
cur table: 1029
epoch: 1000
next table: 1051
cur table: 1049
epoch: 1000
next table: 1032
cur table: 1033
epoch: 1000
next table: 1046
cur table: 1051
epoch: 1000
next table: 1031
cur table: 1032
epoch: 1000
next table: 1051
cur table: 1046
epoch: 1000
next table: 1032
cur table: 1031
epoch: 1000
next table: 1050
cur table: 1051
epoch: 1000
next table: 1026
cur table: 1032
epoch: 1000
next table: 1048
cur table: 1050
epoch: 1000
next table: 1033
cur table: 1026
epoch: 1000
next table: 1051
cur table: 1048
epoch: 1000
next table: 1031
cur table: 1033
epoch: 1000
next table: 1047
cur table: 1051
epoch: 1000
next table: 1035
cur table: 1031
epoch: 1000
next table: 1054
cur table: 1047
epoch: 1000
next table: 1028
cur table: 1035
epoch: 1000
next table: 1045
[...]
cur table: 1222
epoch: 1000
next table: 1228
cur table: 1226
epoch: 1000
next table: 1263
cur table: 1262
epoch: 1000
next table: 1231
cur table: 1228
epoch: 1000
next table: 1269
cur table: 1263
epoch: 1000
next table: 1230
cur table: 1231
epoch: 1000
next table: 1272
cur table: 1269
epoch: 1000
next table: 1228
cur table: 1230
epoch: 1000
next table: 1265
cur table: 1272
epoch: 1000
next table: 1225
cur table: 1228
epoch: 1000
next table: 1224
cur table: 1225
epoch: 1000
next table: 1262
cur table: 1265
epoch: 1000
next table: 1226
cur table: 1224
epoch: 1000
next table: 1262
cur table: 1262
epoch: 1000
next table: 1232
cur table: 1226
epoch: 1000
next table: 1264
cur table: 1262
epoch: 1000
next table: 1223
cur table: 1232
epoch: 1000
next table: 1255
cur table: 1264
epoch: 1000
next table: 1222
cur table: 1223
epoch: 1000
next table: 1224
cur table: 1222
epoch: 1000
next table: 1262
cur table: 1255
epoch: 1000
next table: 1225
cur table: 1224
epoch: 1000
next table: 1260
cur table: 1262
epoch: 1000
next table: 1224
cur table: 1225
epoch: 1000
next table: 1259
cur table: 1260
epoch: 1000
next table: 1224
cur table: 1224
epoch: 1000
next table: 1260
cur table: 1259
epoch: 1000
next table: 1224
cur table: 1224
epoch: 1000
next table: 1262
cur table: 1260
epoch: 1000
next table: 1226
cur table: 1224
epoch: 1000
next table: 1227
cur table: 1226
epoch: 1000
next table: 1258
cur table: 1262
epoch: 1000
next table: 1224
cur table: 1227
epoch: 1000
next table: 1263
cur table: 1258
epoch: 1000
next table: 1225
cur table: 1224
epoch: 1000
next table: 1257
cur table: 1263
epoch: 1000
next table: 1227
cur table: 1225
epoch: 1000
next table: 1265
cur table: 1257
epoch: 1000
next table: 1225
cur table: 1227
epoch: 1000
next table: 1226
cur table: 1225
epoch: 1000
next table: 1257
cur table: 1265
epoch: 1000
next table: 1225
cur table: 1226
epoch: 1000
next table: 1261
cur table: 1257
epoch: 1000
next table: 1228
cur table: 1225
epoch: 1000
next table: 1338
cur table: 1261
epoch: 1000
next table: 1226
cur table: 1228
epoch: 1000
next table: 1225
cur table: 1226
epoch: 1000
next table: 1358
cur table: 1338
epoch: 1000
next table: 1225
cur table: 1225
epoch: 1000
next table: 1227
cur table: 1225
epoch: 1000
next table: 1359
cur table: 1358
epoch: 1000
next table: 1233
cur table: 1227
epoch: 1000
next table: 1229
cur table: 1233
epoch: 1000
next table: 1363
cur table: 1359
epoch: 1000
next table: 1230
cur table: 1229
epoch: 1000
next table: 1233
cur table: 1230
Heartbeat CPU 0 instructions: 100000000 cycles: 78641649 heartbeat IPC: 0.743069 cumulative IPC: 0.835338 (Simulation time: 0 hr 47 min 1 sec) 
Finished CPU 0 instructions: 50000003 cycles: 59855989 cumulative IPC: 0.835338 (Simulation time: 0 hr 47 min 1 sec) 

ChampSim completed all CPUs

Region of Interest Statistics

CPU 0 cumulative IPC: 0.835338 instructions: 50000003 cycles: 59855989
ITLB TOTAL     ACCESS:    7316695  HIT:    7316693  MISS:          2  HIT %:        100  MISS %: 2.73347e-05   MPKI: 4e-05
ITLB LOAD TRANSLATION ACCESS:    7316695  HIT:    7316693  MISS:          2  HIT %:        100  MISS %: 2.73347e-05   MPKI: 4e-05
ITLB PREFETCH  REQUESTED:          0  ISSUED:          0  USEFUL:          0  USELESS:          0
ITLB USEFUL LOAD PREFETCHES:          0 PREFETCH ISSUED TO LOWER LEVEL:          0  ACCURACY: -nan
ITLB TIMELY PREFETCHES:          0 LATE PREFETCHES: 0 DROPPED PREFETCHES: 0
ITLB PREFETCHES SAME FILL-ORIGIN LEVEL: 0 DIFFERENT FILL-ORIGIN LEVEL: 0
ITLB AVERAGE MISS LATENCY: 320 cycles
ITLB RQ	ACCESS:    8897852	FORWARD:          0	MERGED:    1581157	TO_CACHE:    7316695

Revised Interactions: positive negative neutral
ITLB_interactions 0 0 0 -nan -nan -nan
DTLB TOTAL     ACCESS:   10203182  HIT:   10183607  MISS:      19575  HIT %:    99.8081  MISS %:   0.191852   MPKI: 0.3915
DTLB LOAD TRANSLATION ACCESS:   10203182  HIT:   10183607  MISS:      19575  HIT %:    99.8081  MISS %:   0.191852   MPKI: 0.3915
DTLB PREFETCH  REQUESTED:          0  ISSUED:          0  USEFUL:          0  USELESS:          0
DTLB USEFUL LOAD PREFETCHES:          0 PREFETCH ISSUED TO LOWER LEVEL:          0  ACCURACY: -nan
DTLB TIMELY PREFETCHES:          0 LATE PREFETCHES: 0 DROPPED PREFETCHES: 0
DTLB PREFETCHES SAME FILL-ORIGIN LEVEL: 0 DIFFERENT FILL-ORIGIN LEVEL: 0
DTLB AVERAGE MISS LATENCY: 158.588 cycles
DTLB RQ	ACCESS:   10562002	FORWARD:          0	MERGED:     341229	TO_CACHE:   10220773

Revised Interactions: positive negative neutral
DTLB_interactions 0 0 0 -nan -nan -nan
STLB TOTAL     ACCESS:    1123734  HIT:    1105453  MISS:      18281  HIT %:    98.3732  MISS %:    1.62681   MPKI: 0.36562
STLB LOAD TRANSLATION ACCESS:      19577  HIT:       1296  MISS:      18281  HIT %:    6.62001  MISS %:      93.38   MPKI: 0.36562
STLB TRANSLATION FROM L1D PREFETCHER ACCESS:    1104157  HIT:    1104157  MISS:          0  HIT %:        100  MISS %:          0   MPKI: 0
STLB PREFETCH  REQUESTED:          0  ISSUED:          0  USEFUL:          0  USELESS:          0
STLB USEFUL LOAD PREFETCHES:          0 PREFETCH ISSUED TO LOWER LEVEL:          0  ACCURACY: -nan
STLB TIMELY PREFETCHES:          0 LATE PREFETCHES: 0 DROPPED PREFETCHES: 0
STLB PREFETCHES SAME FILL-ORIGIN LEVEL: 0 DIFFERENT FILL-ORIGIN LEVEL: 0
STLB AVERAGE MISS LATENCY: 160.145 cycles
STLB RQ	ACCESS:    4371934	FORWARD:          0	MERGED:    3248200	TO_CACHE:    1123734

Revised Interactions: positive negative neutral
STLB_interactions 0 0 0 -nan -nan -nan
STLB Hit, L1D data hit: 0
STLB Hit, L2C data hit: 0
STLB Hit, LLC data hit: 0
STLB Hit, LLC data miss: 0
STLB STLB hints to L2: 0
L1D TOTAL     ACCESS:   13448921  HIT:   12238371  MISS:    1210550  HIT %:    90.9989  MISS %:    9.00109   MPKI: 24.211
L1D LOAD      ACCESS:    8667340  HIT:    8637635  MISS:      29705  HIT %:    99.6573  MISS %:   0.342723   MPKI: 0.5941
L1D RFO       ACCESS:     433499  HIT:     161267  MISS:     272232  HIT %:    37.2012  MISS %:    62.7988   MPKI: 5.44464
L1D PREFETCH  ACCESS:    4348082  HIT:    3439469  MISS:     908613  HIT %:    79.1031  MISS %:    20.8969   MPKI: 18.1723
L1D PREFETCH  REQUESTED:    8730435  ISSUED:    8704755  USEFUL:     853099  USELESS:      55499
L1D USEFUL LOAD PREFETCHES:     853099 PREFETCH ISSUED TO LOWER LEVEL:     909917  ACCURACY: 93.7557
L1D TIMELY PREFETCHES:     853099 LATE PREFETCHES: 35199 DROPPED PREFETCHES: 0
L1D PREFETCHES SAME FILL-ORIGIN LEVEL: 909917 DIFFERENT FILL-ORIGIN LEVEL: 0
L1D AVERAGE MISS LATENCY: 112.401 cycles
L1D RQ	ACCESS:   13684687	FORWARD:          0	MERGED:    4962746	TO_CACHE:    8721246
L1D WQ	ACCESS:    1840756	FORWARD:        695	MERGED:          0	TO_CACHE:    1840756
L1D PQ	ACCESS:    4352398	FORWARD:          0	MERGED:         41	TO_CACHE:    4352357

Revised Interactions: positive negative neutral
L1D_interactions 0 0 0 -nan -nan -nan
L1D UNIQUE REGIONS ACCESSED: 0
L1D REGIONS CONFLICTS: 0
L1D Cross Page Prefetch Requests: 0
L1D Same Page Prefetch Requests: 9048290
L1D ROI Sum of L1D PQ occupancy: 63772499
L1D PREFETCHES PUSHED FROM L2C: 0
L1I TOTAL     ACCESS:    8897770  HIT:    8897625  MISS:        145  HIT %:    99.9984  MISS %: 0.00162962   MPKI: 0.0029
L1I LOAD      ACCESS:    8897770  HIT:    8897625  MISS:        145  HIT %:    99.9984  MISS %: 0.00162962   MPKI: 0.0029
L1I PREFETCH  REQUESTED:          0  ISSUED:          0  USEFUL:          0  USELESS:          0
L1I USEFUL LOAD PREFETCHES:          0 PREFETCH ISSUED TO LOWER LEVEL:          0  ACCURACY: -nan
L1I TIMELY PREFETCHES:          0 LATE PREFETCHES: 0 DROPPED PREFETCHES: 0
L1I PREFETCHES SAME FILL-ORIGIN LEVEL: 0 DIFFERENT FILL-ORIGIN LEVEL: 0
L1I AVERAGE MISS LATENCY: 301.855 cycles
L1I RQ	ACCESS:   12502514	FORWARD:          0	MERGED:    3604662	TO_CACHE:    8897852

Revised Interactions: positive negative neutral
L1I_interactions 0 0 0 -nan -nan -nan
BTB TOTAL     ACCESS:    1565915  HIT:    1565883  MISS:         32  HIT %:     99.998  MISS %: 0.00204353   MPKI: 0.00064
BTB BRANCH_DIRECT_JUMP	ACCESS:          0  HIT:          0  MISS:          0
BTB BRANCH_INDIRECT	ACCESS:          0  HIT:          0  MISS:          0
BTB BRANCH_CONDITIONAL	ACCESS:    1565909  HIT:    1565883  MISS:         26
BTB BRANCH_DIRECT_CALL	ACCESS:          3  HIT:          0  MISS:          3
BTB BRANCH_INDIRECT_CALL	ACCESS:          0  HIT:          0  MISS:          0
BTB BRANCH_RETURN	ACCESS:          3  HIT:          0  MISS:          3
BTB BRANCH_OTHER ACCESS:          0  HIT:          0  MISS:          0

L2C TOTAL     ACCESS:    5393384  HIT:    4435623  MISS:     957761  HIT %:    82.2419  MISS %:    17.7581   MPKI: 19.1552
L2C LOAD      ACCESS:      29850  HIT:      12730  MISS:      17120  HIT %:    42.6466  MISS %:    57.3534   MPKI: 0.3424
L2C DATA LOAD MPKI: 0.3395
L2C INSTRUCTION LOAD MPKI: 0.0029
L2C RFO       ACCESS:     272232  HIT:          6  MISS:     272226  HIT %:   0.002204  MISS %:    99.9978   MPKI: 5.44452
L2C PREFETCH  ACCESS:    4798548  HIT:    4139819  MISS:     658729  HIT %:    86.2723  MISS %:    13.7277   MPKI: 13.1746
L2C DATA PREFETCH MPKI: 13.1746
L2C INSTRUCTION PREFETCH MPKI: 0
L2C WRITEBACK ACCESS:     274426  HIT:     268459  MISS:       5967  HIT %:    97.8256  MISS %:    2.17436   MPKI: 0.11934
L2C LOAD TRANSLATION ACCESS:      18328  HIT:      14609  MISS:       3719  HIT %:    79.7086  MISS %:    20.2914   MPKI: 0.07438
L2C PREFETCH  REQUESTED:    4431611  ISSUED:    4421314  USEFUL:       1452  USELESS:     655697
L2C USEFUL LOAD PREFETCHES:       1452 PREFETCH ISSUED TO LOWER LEVEL:     658858  ACCURACY: 0.220381
L2C TIMELY PREFETCHES:       1452 LATE PREFETCHES: 127 DROPPED PREFETCHES: 0
L2C PREFETCHES SAME FILL-ORIGIN LEVEL: 561429 DIFFERENT FILL-ORIGIN LEVEL: 0
L2C AVERAGE MISS LATENCY: 279.643 cycles
L2C RQ	ACCESS:     320411	FORWARD:          0	MERGED:          0	TO_CACHE:     320411
L2C WQ	ACCESS:     274426	FORWARD:          0	MERGED:          0	TO_CACHE:     274426
L2C PQ	ACCESS:    5329927	FORWARD:          0	MERGED:     194875	TO_CACHE:    5135052

Revised Interactions: positive negative neutral
L2C_interactions 4521 655984 175313 0.540907 78.4841 20.975
L2C Instructions Evicting Data 144
L2C Translations Evicting Data 3710
L2C Data Evicting Data 944301
L2C Instructions Evicting Instructions 0
L2C Translations Evicting Instructions 0
L2C Data Evicting Instructions 145
L2C Instructions Evicting Translations 1
L2C Translations Evicting Translations 9
L2C Data Evicting Translations 3700
L2C Dense regions hint from L2: 0
PSCL5 TOTAL     ACCESS:      18281  HIT:      18281  MISS:          0  HIT %:        100  MISS %:          0   MPKI: 0
PSCL5 LOAD TRANSLATION ACCESS:      18281  HIT:      18281  MISS:          0  HIT %:        100  MISS %:          0   MPKI: 0
PSCL5 PREFETCH  REQUESTED:          0  ISSUED:          0  USEFUL:          0  USELESS:          0
PSCL5 USEFUL LOAD PREFETCHES:          0 PREFETCH ISSUED TO LOWER LEVEL:          0  ACCURACY: -nan
PSCL5 TIMELY PREFETCHES:          0 LATE PREFETCHES: 0 DROPPED PREFETCHES: 0
PSCL5 PREFETCHES SAME FILL-ORIGIN LEVEL: 0 DIFFERENT FILL-ORIGIN LEVEL: 0

Revised Interactions: positive negative neutral
PSCL5_interactions 0 0 0 -nan -nan -nan
PSCL4 TOTAL     ACCESS:      18281  HIT:      18281  MISS:          0  HIT %:        100  MISS %:          0   MPKI: 0
PSCL4 LOAD TRANSLATION ACCESS:      18281  HIT:      18281  MISS:          0  HIT %:        100  MISS %:          0   MPKI: 0
PSCL4 PREFETCH  REQUESTED:          0  ISSUED:          0  USEFUL:          0  USELESS:          0
PSCL4 USEFUL LOAD PREFETCHES:          0 PREFETCH ISSUED TO LOWER LEVEL:          0  ACCURACY: -nan
PSCL4 TIMELY PREFETCHES:          0 LATE PREFETCHES: 0 DROPPED PREFETCHES: 0
PSCL4 PREFETCHES SAME FILL-ORIGIN LEVEL: 0 DIFFERENT FILL-ORIGIN LEVEL: 0

Revised Interactions: positive negative neutral
PSCL4_interactions 0 0 0 -nan -nan -nan
PSCL3 TOTAL     ACCESS:      18281  HIT:      18281  MISS:          0  HIT %:        100  MISS %:          0   MPKI: 0
PSCL3 LOAD TRANSLATION ACCESS:      18281  HIT:      18281  MISS:          0  HIT %:        100  MISS %:          0   MPKI: 0
PSCL3 PREFETCH  REQUESTED:          0  ISSUED:          0  USEFUL:          0  USELESS:          0
PSCL3 USEFUL LOAD PREFETCHES:          0 PREFETCH ISSUED TO LOWER LEVEL:          0  ACCURACY: -nan
PSCL3 TIMELY PREFETCHES:          0 LATE PREFETCHES: 0 DROPPED PREFETCHES: 0
PSCL3 PREFETCHES SAME FILL-ORIGIN LEVEL: 0 DIFFERENT FILL-ORIGIN LEVEL: 0

Revised Interactions: positive negative neutral
PSCL3_interactions 0 0 0 -nan -nan -nan
PSCL2 TOTAL     ACCESS:      18281  HIT:      18232  MISS:         49  HIT %:     99.732  MISS %:   0.268038   MPKI: 0.00098
PSCL2 LOAD TRANSLATION ACCESS:      18281  HIT:      18232  MISS:         49  HIT %:     99.732  MISS %:   0.268038   MPKI: 0.00098
PSCL2 PREFETCH  REQUESTED:          0  ISSUED:          0  USEFUL:          0  USELESS:          0
PSCL2 USEFUL LOAD PREFETCHES:          0 PREFETCH ISSUED TO LOWER LEVEL:          0  ACCURACY: -nan
PSCL2 TIMELY PREFETCHES:          0 LATE PREFETCHES: 0 DROPPED PREFETCHES: 0
PSCL2 PREFETCHES SAME FILL-ORIGIN LEVEL: 0 DIFFERENT FILL-ORIGIN LEVEL: 0

Revised Interactions: positive negative neutral
PSCL2_interactions 0 0 0 -nan -nan -nan
LLC TOTAL     ACCESS:    1226036  HIT:     181050  MISS:    1044986  HIT %:    14.7671  MISS %:    85.2329   MPKI: 20.8997
LLC LOAD      ACCESS:      16992  HIT:        629  MISS:      16363  HIT %:    3.70174  MISS %:    96.2983   MPKI: 0.32726
LLC RFO       ACCESS:     272226  HIT:          5  MISS:     272221  HIT %: 0.00183671  MISS %:    99.9982   MPKI: 5.44442
LLC PREFETCH  ACCESS:     658856  HIT:       3211  MISS:     655645  HIT %:    0.48736  MISS %:    99.5126   MPKI: 13.1129
LLC WRITEBACK ACCESS:     274243  HIT:     177137  MISS:      97106  HIT %:    64.5913  MISS %:    35.4087   MPKI: 1.94212
LLC LOAD TRANSLATION ACCESS:       3719  HIT:         68  MISS:       3651  HIT %:    1.82845  MISS %:    98.1716   MPKI: 0.07302
LLC PREFETCH  REQUESTED:          0  ISSUED:          0  USEFUL:         27  USELESS:     326926
LLC USEFUL LOAD PREFETCHES:         27 PREFETCH ISSUED TO LOWER LEVEL:     655647  ACCURACY: 0.00411807
LLC TIMELY PREFETCHES:         27 LATE PREFETCHES: 0 DROPPED PREFETCHES: 0
LLC PREFETCHES SAME FILL-ORIGIN LEVEL: 0 DIFFERENT FILL-ORIGIN LEVEL: 0
LLC AVERAGE MISS LATENCY: 228.676 cycles
LLC RQ	ACCESS:     292939	FORWARD:          0	MERGED:          0	TO_CACHE:     292938
LLC WQ	ACCESS:     274243	FORWARD:          1	MERGED:          0	TO_CACHE:     274243
LLC PQ	ACCESS:     658858	FORWARD:          0	MERGED:          0	TO_CACHE:     658858

Revised Interactions: positive negative neutral
LLC_interactions 118 337946 100844 0.0268849 76.997 22.9761
LLC Dense regions hint to LLC: 0

RAW hits: 2854
Loads Generated: 13687541
Loads sent to L1D: 13684687
Stores Generated: 1840903
Stores sent to L1D: 1840904
Major fault: 0 Minor fault: 33686
Allocated PAGES: 33686

stream: 
stream:times selected: 3574903
stream:pref_filled: 2295945
stream:pref_useful: 2167261
stream:pref_late: 9186
stream:misses: 161
stream:misses_by_poll: 0

CS: 
CS:times selected: 3421950
CS:pref_filled: 2163
CS:pref_useful: 1901
CS:pref_late: 11
CS:misses: 118217
CS:misses_by_poll: 10

CPLX: 
CPLX:times selected: 152847
CPLX:pref_filled: 7627
CPLX:pref_useful: 5863
CPLX:pref_late: 2
CPLX:misses: 4158
CPLX:misses_by_poll: 9

NL_L1: 
NL:times selected: 106
NL:pref_filled: 3
NL:pref_useful: 3
NL:pref_late: 0
NL:misses: 2
NL:misses_by_poll: 0

total selections: 7149806
total_filled: 908613
total_useful: 853099
total_late: 9205
total_polluted: 19
total_misses_after_warmup: 83612
conflicts: 1326
Degree Incremented Times: 240971
Degree Decremented Times: 0

L1 IP Table Write Accesses: 8677821
L1 IP Table Read Accesses: 8676495
L1 RST Write Accesses: 1886954
L1 RST Read Accesses: 3773908
L1 CSPT Write Accesses: 1886954
L1 CSPT Read Accesses: 2301185
L1 RR Filter Tag Write Accesses: 4378078
L1 RR Filter Tag Read Accesses: 388955180
L1 IP Table Tag Write Accesses: 8721247
L1 IP Table Tag Read Accesses: 8721247
L1 RST Tag Write Accesses: 0
L1 RST Tag Read Accesses: 17011040
L1 RR Filter Write Accesses: 0
L1 RR Filter Read Accesses: 16048707
test: 84235
L2 IP Table Read Accesses: 1596142
L2 IP Table Write Accesses: 1572157
L2 IP Table Tag Read Accesses: 800348
L2 IP Table Tag Write Accesses: 800348

DRAM Statistics
 CHANNEL 0
 RQ ROW_BUFFER_HIT:     119174  ROW_BUFFER_MISS:     828698
 DBUS_CONGESTED:         26
 WQ ROW_BUFFER_HIT:      57589  ROW_BUFFER_MISS:     226917  FULL:       3308

 AVG_CONGESTED_CYCLE: 4
 All warmup complete: 2
Channel 0 Bank busy for read cycles: 0
Channel 0 Bank busy for write cycles: 0
Channel 0
Rank 0
0banks busy for read cycles: 9122274
0banks busy for write cycles: 6962
1banks busy for read cycles: 8565875
1banks busy for write cycles: 1010344
2banks busy for read cycles: 12889430
2banks busy for write cycles: 166494
3banks busy for read cycles: 8132844
3banks busy for write cycles: 120662
4banks busy for read cycles: 3349750
4banks busy for write cycles: 107010
5banks busy for read cycles: 1880853
5banks busy for write cycles: 112951
6banks busy for read cycles: 1802001
6banks busy for write cycles: 131117
7banks busy for read cycles: 2747165
7banks busy for write cycles: 472603
8banks busy for read cycles: 2917065
8banks busy for write cycles: 6320590

CPU 0 Branch Prediction Accuracy: 99.7618% MPKI: 0.07482 Average ROB Occupancy at Mispredict: 61.3066
Branch types
NOT_BRANCH: 48429657 96.8593%
BRANCH_DIRECT_JUMP: 0 0%
BRANCH_INDIRECT: 0 0%
BRANCH_CONDITIONAL: 1570362 3.14072%
BRANCH_DIRECT_CALL: 3 6e-06%
BRANCH_INDIRECT_CALL: 0 0%
BRANCH_RETURN: 3 6e-06%
BRANCH_OTHER: 0 0%

@sumon_overall_L1D    853099     35199     35199     55499    908613   8704755   8730435
@Sumon_Early_by_class_L1D    846544       926      5615         0
@Sumon_Late_by_class_L1D      8343        11         2         0

@Sumon_Early_by_cycle_L1D     13089     16742     49875     79598     30846    206506    443528      1720       516     10679         0         0
@Sumon_Late_by_cycle_L1D      1408      1334       633      1114      3370       503
@Sumon_Early_stream_L1D     13050     16638     49701     79495     30728    206117    439530       537        88     10660         0         0
@Sumon_Early_CS_L1D        32        98       161        97       112       317       105         4         0         0         0         0
@Sumon_Early_CPLX_L1D         3         6         7         5         4        72      3892      1179       428        19         0         0
@Sumon_Late_stream_L1D      1405      1330       632      1112      3361       503
@Sumon_Late_CS_L1D         2         3         1         0         5         0
@Sumon_Late_CPLX_L1D         0         0         0         1         1         0
@sumon_overall_L2C      1452       127         0    655697    658729   4421314   4431611
@Sumon_Early_by_class_L2C      1413         0         3         0
@Sumon_Late_by_class_L2C       123         0         0         0

@Sumon_Early_by_cycle_L2C        32        26        41       105       124       331         1         0         0       372        70       350
@Sumon_Late_by_cycle_L2C         0         1        12        10        68        36
@Sumon_Early_stream_L2C        31        23        35       100       118       320         1         0         0       372        68       345
@Sumon_Early_CS_L2C         0         0         0         0         0         0         0         0         0         0         0         0
@Sumon_Early_CPLX_L2C         0         0         0         0         0         0         0         0         0         0         1         2
@Sumon_Late_stream_L2C         0         1        11        10        66        35
@Sumon_Late_CS_L2C         0         0         0         0         0         0
@Sumon_Late_CPLX_L2C         0         0         0         0         0         0
DRAM PAGES: 1048576
Allocated PAGES: 33686
