
*** ChampSim Multicore Out-of-Order Simulator ***

Warmup Instructions: 50000000
Simulation Instructions: 50000000
Number of CPUs: 1
LLC sets: 2048
LLC ways: 16
Off-chip DRAM Size: 4096 MB Channels: 1 Width: 64-bit Data Rate: 6400 MT/s
CPU 0 runs ../../biswa/SPEC2017Traces/657.xz_s-2302B.champsimtrace.xz
.xz
CPU 0 Bimodal branch predictor
BTB has LRU replacement policy
ITLB has LRU replacement policy
DTLB has LRU replacement policy
STLB has LRU replacement policy
L1I has LRU replacement policy
IP Table Entries: 256
L1D has LRU replacement policy
IP_Table L2 entries: 256
Initialize DRRIP state for L2C
epoch: 1000
next table: 2658
cur table: 7153
epoch: 1000
next table: 2419
cur table: 2658
epoch: 1000
next table: 2032
cur table: 2419
epoch: 1000
next table: 2060
cur table: 2032
epoch: 1000
next table: 2070
cur table: 2060
epoch: 1000
next table: 2036
cur table: 2070
epoch: 1000
next table: 2040
cur table: 2036
epoch: 1000
next table: 1985
cur table: 2040
epoch: 1000
next table: 1932
cur table: 1985
epoch: 1000
next table: 1962
cur table: 1932
epoch: 1000
next table: 2048
cur table: 1962
epoch: 1000
next table: 2007
cur table: 2048
epoch: 1000
next table: 2199
cur table: 2007
epoch: 1000
next table: 2111
cur table: 2199
epoch: 1000
next table: 2062
cur table: 2111
epoch: 1000
next table: 1847
cur table: 2062
epoch: 1000
next table: 1960
cur table: 1847
epoch: 1000
next table: 1993
cur table: 1960
epoch: 1000
next table: 2075
cur table: 1993
epoch: 1000
next table: 2127
cur table: 2075
epoch: 1000
next table: 1914
cur table: 2127
epoch: 1000
next table: 2098
cur table: 1914
epoch: 1000
next table: 2094
cur table: 2098
epoch: 1000
next table: 2022
cur table: 2094
epoch: 1000
next table: 2024
cur table: 2022
epoch: 1000
next table: 2012
cur table: 2024
epoch: 1000
next table: 2049
cur table: 2012
epoch: 1000
next table: 2090
cur table: 2049
epoch: 1000
next table: 1998
cur table: 2090
epoch: 1000
next table: 2096
cur table: 1998
epoch: 1000
next table: 2132
cur table: 2096
epoch: 1000
next table: 2091
cur table: 2132
epoch: 1000
next table: 2019
cur table: 2091
epoch: 1000
next table: 2101
cur table: 2019
epoch: 1000
next table: 3631
cur table: 19825
epoch: 1000
next table: 2220
cur table: 2101
epoch: 1000
next table: 2245
cur table: 2220
epoch: 1000
next table: 2161
cur table: 2245
epoch: 1000
next table: 2297
cur table: 2161
epoch: 1000
next table: 2917
cur table: 3631
epoch: 1000
next table: 2159
cur table: 2297
epoch: 1000
next table: 2119
cur table: 2159
epoch: 1000
next table: 2213
cur table: 2119
epoch: 1000
next table: 2546
cur table: 2917
epoch: 1000
next table: 2110
cur table: 2213
epoch: 1000
next table: 2220
cur table: 2110
epoch: 1000
next table: 2166
cur table: 2220
epoch: 1000
next table: 2566
cur table: 2546
epoch: 1000
next table: 2229
cur table: 2166
epoch: 1000
next table: 1912
cur table: 2229
epoch: 1000
next table: 2034
cur table: 1912
epoch: 1000
next table: 2359
cur table: 2566
epoch: 1000
next table: 1944
cur table: 2034
epoch: 1000
next table: 2005
cur table: 1944
epoch: 1000
next table: 2059
cur table: 2359
epoch: 1000
next table: 1777
cur table: 2005
epoch: 1000
next table: 1919
cur table: 1777
epoch: 1000
next table: 2023
cur table: 1919
epoch: 1000
next table: 2452
cur table: 2059
epoch: 1000
next table: 2074
cur table: 2023
epoch: 1000
next table: 2159
cur table: 2074
epoch: 1000
next table: 2001
cur table: 2159
epoch: 1000
next table: 2296
cur table: 2452
epoch: 1000
next table: 2053
cur table: 2001
epoch: 1000
next table: 2148
cur table: 2053
epoch: 1000
next table: 1989
cur table: 2296
epoch: 1000
next table: 2014
cur table: 2148
epoch: 1000
next table: 1946
cur table: 2014
epoch: 1000
next table: 2067
cur table: 1989
epoch: 1000
next table: 2018
cur table: 1946
epoch: 1000
next table: 2083
cur table: 2018
epoch: 1000
next table: 1995
cur table: 2067
epoch: 1000
next table: 2144
cur table: 2083
epoch: 1000
next table: 2065
cur table: 2144
epoch: 1000
next table: 2016
cur table: 1995
epoch: 1000
next table: 1937
cur table: 2065
epoch: 1000
next table: 2124
cur table: 1937
epoch: 1000
next table: 2009
cur table: 2016
epoch: 1000
next table: 2022
cur table: 2124
Heartbeat CPU 0 instructions: 10000003 cycles: 2790752 heartbeat IPC: 3.58326 cumulative IPC: 3.58326 (Simulation time: 0 hr 4 min 28 sec) 
epoch: 1000
next table: 1951
cur table: 2022
epoch: 1000
next table: 2023
cur table: 2009
epoch: 1000
next table: 2052
cur table: 1951
epoch: 1000
next table: 2033
cur table: 2052
epoch: 1000
next table: 2041
cur table: 2023
epoch: 1000
next table: 2162
cur table: 2033
epoch: 1000
next table: 1949
cur table: 2162
epoch: 1000
next table: 2009
cur table: 1949
epoch: 1000
next table: 2447
cur table: 2041
epoch: 1000
next table: 2171
cur table: 2009
epoch: 1000
next table: 1954
cur table: 2171
epoch: 1000
next table: 2122
cur table: 2447
epoch: 1000
next table: 2083
cur table: 1954
epoch: 1000
next table: 2247
cur table: 2083
epoch: 1000
next table: 2290
cur table: 2247
epoch: 1000
next table: 2327
cur table: 2122
epoch: 1000
next table: 2081
cur table: 2290
epoch: 1000
next table: 1855
cur table: 2327
epoch: 1000
next table: 2010
cur table: 2081
epoch: 1000
next table: 2147
cur table: 2010
epoch: 1000
next table: 2129
cur table: 2147
epoch: 1000
next table: 2060
cur table: 1855
epoch: 1000
next table: 2127
cur table: 2129
epoch: 1000
next table: 2068
cur table: 2127
epoch: 1000
next table: 2001
cur table: 2060
epoch: 1000
next table: 2244
cur table: 2068
epoch: 1000
next table: 2194
cur table: 2244
epoch: 1000
next table: 2144
cur table: 2001
epoch: 1000
next table: 2425
cur table: 2194
epoch: 1000
next table: 2275
cur table: 2425
epoch: 1000
next table: 1983
cur table: 2144
epoch: 1000
next table: 2185
cur table: 2275
epoch: 1000
next table: 2083
cur table: 2185
epoch: 1000
next table: 2289
cur table: 1983
epoch: 1000
next table: 1938
cur table: 2083
epoch: 1000
next table: 1971
cur table: 1938
epoch: 1000
next table: 2068
cur table: 1971
epoch: 1000
next table: 2141
cur table: 2289
epoch: 1000
next table: 2002
cur table: 2068
epoch: 1000
next table: 2033
cur table: 2002
epoch: 1000
next table: 1976
cur table: 2141
epoch: 1000
next table: 2092
cur table: 2033
epoch: 1000
next table: 2006
cur table: 2092
epoch: 1000
next table: 2174
cur table: 1976
epoch: 1000
next table: 2162
cur table: 2006
epoch: 1000
next table: 2115
cur table: 2162
epoch: 1000
next table: 2284
cur table: 2174
epoch: 1000
next table: 2097
cur table: 2115
epoch: 1000
next table: 2092
cur table: 2097
epoch: 1000
next table: 2038
cur table: 2092
epoch: 1000
next table: 2076
cur table: 2284
epoch: 1000
next table: 2130
cur table: 2038
epoch: 1000
next table: 2176
cur table: 2130
epoch: 1000
next table: 2080
cur table: 2076
epoch: 1000
next table: 2063
cur table: 2176
epoch: 1000
next table: 2022
cur table: 2063
epoch: 1000
next table: 2211
cur table: 2080
epoch: 1000
next table: 2220
cur table: 2022
epoch: 1000
next table: 2097
cur table: 2220
epoch: 1000
next table: 1730
cur table: 2097
epoch: 1000
next table: 2196
cur table: 2211
epoch: 1000
next table: 2071
cur table: 1730
epoch: 1000
next table: 2010
cur table: 2071
epoch: 1000
next table: 2116
cur table: 2196
epoch: 1000
next table: 1903
cur table: 2010
epoch: 1000
next table: 2031
cur table: 1903
epoch: 1000
next table: 2046
cur table: 2116
epoch: 1000
next table: 2010
cur table: 2031
epoch: 1000
next table: 2038
cur table: 2010
epoch: 1000
next table: 2136
cur table: 2046
epoch: 1000
next table: 2069
cur table: 2038
epoch: 1000
next table: 1991
cur table: 2069
epoch: 1000
next table: 2016
cur table: 2136
epoch: 1000
next table: 1950
cur table: 1991
epoch: 1000
next table: 1966
cur table: 1950
epoch: 1000
next table: 2017
cur table: 1966
epoch: 1000
next table: 2059
cur table: 2016
epoch: 1000
next table: 2044
cur table: 2017
epoch: 1000
next table: 2069
cur table: 2044
epoch: 1000
next table: 2333
cur table: 2059
epoch: 1000
next table: 2040
cur table: 2069
epoch: 1000
next table: 2236
cur table: 2040
epoch: 1000
next table: 2146
cur table: 2236
epoch: 1000
next table: 2232
cur table: 2333
epoch: 1000
next table: 2063
cur table: 2146
epoch: 1000
next table: 2201
cur table: 2063
epoch: 1000
next table: 1974
cur table: 2232
epoch: 1000
next table: 2187
cur table: 2201
epoch: 1000
next table: 1968
cur table: 2187
epoch: 1000
next table: 1944
cur table: 1974
epoch: 1000
next table: 2137
cur table: 1968
epoch: 1000
next table: 2167
cur table: 2137
epoch: 1000
next table: 2248
cur table: 1944
epoch: 1000
next table: 2075
cur table: 2167
epoch: 1000
next table: 2077
cur table: 2075
epoch: 1000
next table: 2108
cur table: 2077
epoch: 1000
next table: 2596
cur table: 2248
epoch: 1000
next table: 2073
cur table: 2108
epoch: 1000
next table: 2031
cur table: 2073
epoch: 1000
next table: 1882
cur table: 2031
epoch: 1000
next table: 2140
cur table: 2596
Heartbeat CPU 0 instructions: 20000002 cycles: 5585716 heartbeat IPC: 3.57786 cumulative IPC: 3.58056 (Simulation time: 0 hr 8 min 24 sec) 
epoch: 1000
next table: 2147
cur table: 1882
epoch: 1000
next table: 2239
cur table: 2147
epoch: 1000
next table: 2024
cur table: 2239
epoch: 1000
next table: 2541
cur table: 2140
epoch: 1000
next table: 1547
cur table: 2024
epoch: 1000
next table: 1538
cur table: 1547
epoch: 1000
next table: 1943
cur table: 2541
epoch: 1000
next table: 1824
cur table: 1538
epoch: 1000
next table: 1922
cur table: 1824
epoch: 1000
next table: 1881
cur table: 1922
epoch: 1000
next table: 2376
cur table: 1943
epoch: 1000
next table: 1953
cur table: 1881
epoch: 1000
next table: 2022
cur table: 1953
epoch: 1000
next table: 2281
cur table: 2376
epoch: 1000
next table: 2022
cur table: 2022
epoch: 1000
next table: 2197
cur table: 2022
epoch: 1000
next table: 1953
cur table: 2197
epoch: 1000
next table: 2194
cur table: 2281
epoch: 1000
next table: 2294
cur table: 1953
epoch: 1000
next table: 1971
cur table: 2294
epoch: 1000
next table: 2142
cur table: 2194
epoch: 1000
next table: 2111
cur table: 1971
epoch: 1000
next table: 2115
cur table: 2111
epoch: 1000
next table: 2074
cur table: 2115
epoch: 1000
next table: 2726
cur table: 2142
epoch: 1000
next table: 2133
cur table: 2074
epoch: 1000
next table: 2033
cur table: 2133
epoch: 1000
next table: 2120
cur table: 2726
epoch: 1000
next table: 1955
cur table: 2033
epoch: 1000
next table: 1978
cur table: 1955
epoch: 1000
next table: 2091
cur table: 1978
epoch: 1000
next table: 2294
cur table: 2120
epoch: 1000
next table: 1931
cur table: 2091
epoch: 1000
next table: 2152
cur table: 1931
epoch: 1000
next table: 2097
cur table: 2152
epoch: 1000
next table: 2212
cur table: 2294
epoch: 1000
next table: 2051
cur table: 2097
epoch: 1000
next table: 1920
cur table: 2051
epoch: 1000
next table: 2189
cur table: 2212
epoch: 1000
next table: 2086
cur table: 1920
epoch: 1000
next table: 2144
cur table: 2086
epoch: 1000
next table: 2065
cur table: 2144
epoch: 1000
next table: 2320
cur table: 2189
epoch: 1000
next table: 1988
cur table: 2065
epoch: 1000
next table: 1948
cur table: 1988
epoch: 1000
next table: 2250
cur table: 2320
epoch: 1000
next table: 1997
cur table: 1948
epoch: 1000
next table: 1987
cur table: 1997
epoch: 1000
next table: 2003
cur table: 1987
epoch: 1000
next table: 2135
cur table: 2250
epoch: 1000
next table: 2036
cur table: 2003
epoch: 1000
next table: 2132
cur table: 2036
epoch: 1000
next table: 2069
cur table: 2132
epoch: 1000
next table: 2301
cur table: 2135
epoch: 1000
next table: 2122
cur table: 2069
epoch: 1000
next table: 2132
cur table: 2122
epoch: 1000
next table: 2199
cur table: 2301
epoch: 1000
next table: 1940
cur table: 2132
epoch: 1000
next table: 2119
cur table: 1940
epoch: 1000
next table: 2042
cur table: 2119
epoch: 1000
next table: 2350
cur table: 2199
epoch: 1000
next table: 2131
cur table: 2042
epoch: 1000
next table: 1987
cur table: 2131
epoch: 1000
next table: 2221
cur table: 2350
epoch: 1000
next table: 1935
cur table: 1987
epoch: 1000
next table: 2184
cur table: 1935
epoch: 1000
next table: 2351
cur table: 2184
epoch: 1000
next table: 2493
cur table: 2221
epoch: 1000
next table: 1912
cur table: 2351
epoch: 1000
next table: 1945
cur table: 1912
epoch: 1000
next table: 1972
cur table: 1945
epoch: 1000
next table: 2210
cur table: 2493
epoch: 1000
next table: 1990
cur table: 1972
epoch: 1000
next table: 1925
cur table: 1990
epoch: 1000
next table: 2262
cur table: 2210
epoch: 1000
next table: 2046
cur table: 1925
epoch: 1000
next table: 2070
cur table: 2046
epoch: 1000
next table: 2003
cur table: 2070
epoch: 1000
next table: 2372
cur table: 2262
epoch: 1000
next table: 2060
cur table: 2003
epoch: 1000
next table: 1920
cur table: 2060
epoch: 1000
next table: 1992
cur table: 1920
epoch: 1000
next table: 2579
cur table: 2372
epoch: 1000
next table: 2037
cur table: 1992
epoch: 1000
next table: 2058
cur table: 2037
epoch: 1000
next table: 2181
cur table: 2058
epoch: 1000
next table: 2267
cur table: 2579
epoch: 1000
next table: 2007
cur table: 2181
epoch: 1000
next table: 1917
cur table: 2007
epoch: 1000
next table: 2007
cur table: 1917
epoch: 1000
next table: 2500
cur table: 2267
epoch: 1000
next table: 1942
cur table: 2007
epoch: 1000
next table: 1933
cur table: 1942
epoch: 1000
next table: 2193
cur table: 2500
epoch: 1000
next table: 1985
cur table: 1933
epoch: 1000
next table: 2057
cur table: 1985
epoch: 1000
next table: 1989
cur table: 2057
epoch: 1000
next table: 2261
cur table: 2193
epoch: 1000
next table: 1988
cur table: 1989
epoch: 1000
next table: 2141
cur table: 1988
Heartbeat CPU 0 instructions: 30000000 cycles: 8411485 heartbeat IPC: 3.53886 cumulative IPC: 3.56655 (Simulation time: 0 hr 11 min 53 sec) 
epoch: 1000
next table: 2296
cur table: 2261
epoch: 1000
next table: 2036
cur table: 2141
epoch: 1000
next table: 1915
cur table: 2036
epoch: 1000
next table: 1933
cur table: 1915
epoch: 1000
next table: 2194
cur table: 1933
epoch: 1000
next table: 2492
cur table: 2296
epoch: 1000
next table: 1994
cur table: 2194
epoch: 1000
next table: 2096
cur table: 1994
epoch: 1000
next table: 2098
cur table: 2096
epoch: 1000
next table: 2471
cur table: 2492
epoch: 1000
next table: 2182
cur table: 2098
epoch: 1000
next table: 1910
cur table: 2182
epoch: 1000
next table: 2106
cur table: 1910
epoch: 1000
next table: 2657
cur table: 2471
epoch: 1000
next table: 2047
cur table: 2106
epoch: 1000
next table: 2026
cur table: 2047
epoch: 1000
next table: 2016
cur table: 2026
epoch: 1000
next table: 2239
cur table: 2657
epoch: 1000
next table: 1927
cur table: 2016
epoch: 1000
next table: 2033
cur table: 1927
epoch: 1000
next table: 2144
cur table: 2033
epoch: 1000
next table: 2424
cur table: 2239
epoch: 1000
next table: 2109
cur table: 2144
epoch: 1000
next table: 2102
cur table: 2109
epoch: 1000
next table: 2106
cur table: 2102
epoch: 1000
next table: 2536
cur table: 2424
epoch: 1000
next table: 2120
cur table: 2106
epoch: 1000
next table: 1985
cur table: 2120
epoch: 1000
next table: 2232
cur table: 1985
epoch: 1000
next table: 2497
cur table: 2536
epoch: 1000
next table: 2242
cur table: 2232
epoch: 1000
next table: 2032
cur table: 2242
epoch: 1000
next table: 1943
cur table: 2032
epoch: 1000
next table: 2519
cur table: 2497
epoch: 1000
next table: 2108
cur table: 1943
epoch: 1000
next table: 2016
cur table: 2108
epoch: 1000
next table: 1889
cur table: 2016
epoch: 1000
next table: 2439
cur table: 2519
epoch: 1000
next table: 2056
cur table: 1889
epoch: 1000
next table: 1858
cur table: 2056
epoch: 1000
next table: 1905
cur table: 1858
epoch: 1000
next table: 2311
cur table: 2439
epoch: 1000
next table: 2038
cur table: 1905
epoch: 1000
next table: 2052
cur table: 2038
epoch: 1000
next table: 2034
cur table: 2052
epoch: 1000
next table: 2543
cur table: 2311
epoch: 1000
next table: 1985
cur table: 2034
epoch: 1000
next table: 1992
cur table: 1985
epoch: 1000
next table: 2233
cur table: 1992
epoch: 1000
next table: 2302
cur table: 2543
epoch: 1000
next table: 2134
cur table: 2233
epoch: 1000
next table: 2029
cur table: 2134
epoch: 1000
next table: 2014
cur table: 2029
epoch: 1000
next table: 2001
cur table: 2014
epoch: 1000
next table: 2570
cur table: 2302
epoch: 1000
next table: 2164
cur table: 2001
epoch: 1000
next table: 2106
cur table: 2164
epoch: 1000
next table: 1957
cur table: 2106
epoch: 1000
next table: 2748
cur table: 2570
epoch: 1000
next table: 2199
cur table: 1957
epoch: 1000
next table: 2075
cur table: 2199
epoch: 1000
next table: 2099
cur table: 2075
epoch: 1000
next table: 2066
cur table: 2099
epoch: 1000
next table: 2745
cur table: 2748
epoch: 1000
next table: 2018
cur table: 2066
epoch: 1000
next table: 2021
cur table: 2018
epoch: 1000
next table: 1955
cur table: 2021
epoch: 1000
next table: 1964
cur table: 1955
epoch: 1000
next table: 2759
cur table: 2745
epoch: 1000
next table: 2102
cur table: 1964
epoch: 1000
next table: 2096
cur table: 2102
epoch: 1000
next table: 2063
cur table: 2096
epoch: 1000
next table: 2626
cur table: 2759
epoch: 1000
next table: 2258
cur table: 2063
epoch: 1000
next table: 2012
cur table: 2258
epoch: 1000
next table: 2164
cur table: 2012
epoch: 1000
next table: 2033
cur table: 2164
epoch: 1000
next table: 2896
cur table: 2626
epoch: 1000
next table: 2015
cur table: 2033
epoch: 1000
next table: 2110
cur table: 2015
epoch: 1000
next table: 1999
cur table: 2110
epoch: 1000
next table: 2076
cur table: 1999
epoch: 1000
next table: 2721
cur table: 2896
epoch: 1000
next table: 2179
cur table: 2076
epoch: 1000
next table: 2068
cur table: 2179
epoch: 1000
next table: 1919
cur table: 2068
epoch: 1000
next table: 1984
cur table: 1919
epoch: 1000
next table: 2607
cur table: 2721
epoch: 1000
next table: 2076
cur table: 1984
epoch: 1000
next table: 2169
cur table: 2076
epoch: 1000
next table: 2105
cur table: 2169
epoch: 1000
next table: 2524
cur table: 2607
epoch: 1000
next table: 1925
cur table: 2105
Heartbeat CPU 0 instructions: 40000003 cycles: 11197495 heartbeat IPC: 3.58936 cumulative IPC: 3.57223 (Simulation time: 0 hr 15 min 19 sec) 
epoch: 1000
next table: 2181
cur table: 1925
epoch: 1000
next table: 2111
cur table: 2181
epoch: 1000
next table: 2008
cur table: 2111
epoch: 1000
next table: 2850
cur table: 2524
epoch: 1000
next table: 1872
cur table: 2008
epoch: 1000
next table: 2047
cur table: 1872
epoch: 1000
next table: 2013
cur table: 2047
epoch: 1000
next table: 2033
cur table: 2013
epoch: 1000
next table: 2969
cur table: 2850
epoch: 1000
next table: 1989
cur table: 2033
epoch: 1000
next table: 2085
cur table: 1989
epoch: 1000
next table: 2104
cur table: 2085
epoch: 1000
next table: 2159
cur table: 2104
epoch: 1000
next table: 2656
cur table: 2969
epoch: 1000
next table: 2039
cur table: 2159
epoch: 1000
next table: 1949
cur table: 2039
epoch: 1000
next table: 2039
cur table: 1949
epoch: 1000
next table: 2168
cur table: 2039
epoch: 1000
next table: 2839
cur table: 2656
epoch: 1000
next table: 2145
cur table: 2168
epoch: 1000
next table: 2049
cur table: 2145
epoch: 1000
next table: 2090
cur table: 2049
epoch: 1000
next table: 2015
cur table: 2090
epoch: 1000
next table: 2750
cur table: 2839
epoch: 1000
next table: 2103
cur table: 2015
epoch: 1000
next table: 2010
cur table: 2103
epoch: 1000
next table: 2026
cur table: 2010
epoch: 1000
next table: 2601
cur table: 2750
epoch: 1000
next table: 2047
cur table: 2026
epoch: 1000
next table: 2107
cur table: 2047
epoch: 1000
next table: 2086
cur table: 2107
epoch: 1000
next table: 2092
cur table: 2086
epoch: 1000
next table: 2877
cur table: 2601
epoch: 1000
next table: 1970
cur table: 2092
epoch: 1000
next table: 1970
cur table: 1970
epoch: 1000
next table: 1698
cur table: 1970
epoch: 1000
next table: 1965
cur table: 1698
epoch: 1000
next table: 2924
cur table: 2877
epoch: 1000
next table: 2116
cur table: 1965
epoch: 1000
next table: 2105
cur table: 2116
epoch: 1000
next table: 2077
cur table: 2105
epoch: 1000
next table: 2038
cur table: 2077
epoch: 1000
next table: 2788
cur table: 2924
epoch: 1000
next table: 2027
cur table: 2038
epoch: 1000
next table: 2157
cur table: 2027
epoch: 1000
next table: 2055
cur table: 2157
epoch: 1000
next table: 1921
cur table: 2055
epoch: 1000
next table: 2916
cur table: 2788
epoch: 1000
next table: 2053
cur table: 1921
epoch: 1000
next table: 1981
cur table: 2053
epoch: 1000
next table: 2055
cur table: 1981
epoch: 1000
next table: 2088
cur table: 2055
epoch: 1000
next table: 2803
cur table: 2916
epoch: 1000
next table: 2114
cur table: 2088
epoch: 1000
next table: 1989
cur table: 2114
epoch: 1000
next table: 2092
cur table: 1989
epoch: 1000
next table: 2680
cur table: 2803
epoch: 1000
next table: 2110
cur table: 2092
epoch: 1000
next table: 2103
cur table: 2110
epoch: 1000
next table: 2126
cur table: 2103
epoch: 1000
next table: 2067
cur table: 2126
epoch: 1000
next table: 2810
cur table: 2680
epoch: 1000
next table: 2040
cur table: 2067
epoch: 1000
next table: 1944
cur table: 2040
epoch: 1000
next table: 1945
cur table: 1944
epoch: 1000
next table: 1976
cur table: 1945
epoch: 1000
next table: 2964
cur table: 2810
epoch: 1000
next table: 2119
cur table: 1976
epoch: 1000
next table: 2098
cur table: 2119
epoch: 1000
next table: 2056
cur table: 2098
epoch: 1000
next table: 2109
cur table: 2056
epoch: 1000
next table: 2074
cur table: 2109
epoch: 1000
next table: 3017
cur table: 2964
epoch: 1000
next table: 2036
cur table: 2074
epoch: 1000
next table: 2126
cur table: 2036
epoch: 1000
next table: 2086
cur table: 2126
epoch: 1000
next table: 2056
cur table: 2086
epoch: 1000
next table: 3085
cur table: 3017
epoch: 1000
next table: 2080
cur table: 2056
epoch: 1000
next table: 2199
cur table: 2080
epoch: 1000
next table: 2070
cur table: 2199
epoch: 1000
next table: 2106
cur table: 2070
epoch: 1000
next table: 2852
cur table: 3085
epoch: 1000
next table: 2010
cur table: 2106
epoch: 1000
next table: 1994
cur table: 2010
epoch: 1000
next table: 2027
cur table: 1994
epoch: 1000
next table: 2034
cur table: 2027
epoch: 1000
next table: 2838
cur table: 2852
epoch: 1000
next table: 1938
cur table: 2034
epoch: 1000
next table: 1985
cur table: 1938
Heartbeat CPU 0 instructions: 50000000 cycles: 13989322 heartbeat IPC: 3.58188 cumulative IPC: 3.57415 (Simulation time: 0 hr 18 min 43 sec) 

Warmup complete CPU 0 instructions: 50000004 cycles: 13989323 (Simulation time: 0 hr 18 min 43 sec) 

epoch: 1000
next table: 2021
cur table: 2026
epoch: 1000
next table: 2003
cur table: 2021
epoch: 1000
next table: 2132
cur table: 2003
epoch: 1000
next table: 2041
cur table: 2132
epoch: 1000
next table: 2100
cur table: 2041
epoch: 1000
next table: 2063
cur table: 2100
epoch: 1000
next table: 2141
cur table: 2063
epoch: 1000
next table: 2836
cur table: 2908
epoch: 1000
next table: 2089
cur table: 2141
epoch: 1000
next table: 1978
cur table: 2089
epoch: 1000
next table: 1945
cur table: 1978
epoch: 1000
next table: 2712
cur table: 2836
epoch: 1000
next table: 1993
cur table: 1945
epoch: 1000
next table: 1975
cur table: 1993
epoch: 1000
next table: 1936
cur table: 1975
epoch: 1000
next table: 2301
cur table: 2712
epoch: 1000
next table: 2129
cur table: 1936
epoch: 1000
next table: 2034
cur table: 2129
epoch: 1000
next table: 1945
cur table: 2034
epoch: 1000
next table: 1969
cur table: 1945
epoch: 1000
next table: 2845
cur table: 2301
epoch: 1000
next table: 2063
cur table: 1969
epoch: 1000
next table: 2124
cur table: 2063
epoch: 1000
next table: 2088
cur table: 2124
epoch: 1000
next table: 2380
cur table: 2845
epoch: 1000
next table: 1939
cur table: 2088
epoch: 1000
next table: 1909
cur table: 1939
epoch: 1000
next table: 1908
cur table: 1909
epoch: 1000
next table: 2456
cur table: 2380
epoch: 1000
next table: 2031
cur table: 1908
epoch: 1000
next table: 1986
cur table: 2031
epoch: 1000
next table: 1794
cur table: 1986
epoch: 1000
next table: 2318
cur table: 2456
epoch: 1000
next table: 1995
cur table: 1794
epoch: 1000
next table: 1951
cur table: 1995
epoch: 1000
next table: 1872
cur table: 1951
epoch: 1000
next table: 1940
cur table: 1872
epoch: 1000
next table: 2873
cur table: 2318
epoch: 1000
next table: 1978
cur table: 1940
epoch: 1000
next table: 1982
cur table: 1978
epoch: 1000
next table: 1981
cur table: 1982
epoch: 1000
next table: 2070
cur table: 1981
epoch: 1000
next table: 2896
cur table: 2873
epoch: 1000
next table: 1982
cur table: 2070
epoch: 1000
next table: 2052
cur table: 1982
epoch: 1000
next table: 2166
cur table: 2052
epoch: 1000
next table: 2048
cur table: 2166
epoch: 1000
next table: 2978
cur table: 2896
epoch: 1000
next table: 2209
cur table: 2048
epoch: 1000
next table: 2144
cur table: 2209
epoch: 1000
next table: 2185
cur table: 2144
epoch: 1000
next table: 2112
cur table: 2185
epoch: 1000
next table: 2748
cur table: 2978
epoch: 1000
next table: 1975
cur table: 2112
epoch: 1000
next table: 1953
cur table: 1975
epoch: 1000
next table: 1992
cur table: 1953
epoch: 1000
next table: 2188
cur table: 1992
epoch: 1000
next table: 2946
cur table: 2748
epoch: 1000
next table: 2126
cur table: 2188
epoch: 1000
next table: 2009
cur table: 2126
epoch: 1000
next table: 2063
cur table: 2009
epoch: 1000
next table: 2075
cur table: 2063
epoch: 1000
next table: 2800
cur table: 2946
epoch: 1000
next table: 2079
cur table: 2075
epoch: 1000
next table: 1750
cur table: 2079
epoch: 1000
next table: 2047
cur table: 2800
epoch: 1000
next table: 1903
cur table: 1750
epoch: 1000
next table: 1996
cur table: 1903
epoch: 1000
next table: 2013
cur table: 1996
epoch: 1000
next table: 1889
cur table: 2013
epoch: 1000
next table: 2752
cur table: 2047
epoch: 1000
next table: 2124
cur table: 1889
epoch: 1000
next table: 2043
cur table: 2124
epoch: 1000
next table: 1918
cur table: 2043
epoch: 1000
next table: 1974
cur table: 1918
epoch: 1000
next table: 2108
cur table: 1974
epoch: 1000
next table: 3125
cur table: 2752
epoch: 1000
next table: 2034
cur table: 2108
epoch: 1000
next table: 1992
cur table: 2034
epoch: 1000
next table: 2177
cur table: 1992
epoch: 1000
next table: 2120
cur table: 2177
epoch: 1000
next table: 1920
cur table: 2120
epoch: 1000
next table: 2934
cur table: 3125
epoch: 1000
next table: 2026
cur table: 1920
epoch: 1000
next table: 2006
cur table: 2026
epoch: 1000
next table: 2077
cur table: 2006
epoch: 1000
next table: 2024
cur table: 2077
epoch: 1000
next table: 2830
cur table: 2934
epoch: 1000
next table: 2053
cur table: 2024
epoch: 1000
next table: 2097
cur table: 2053
epoch: 1000
next table: 2033
cur table: 2097
epoch: 1000
next table: 2075
cur table: 2033
epoch: 1000
next table: 2933
cur table: 2830
epoch: 1000
next table: 1997
cur table: 2075
epoch: 1000
next table: 2225
cur table: 1997
Heartbeat CPU 0 instructions: 60000001 cycles: 33667084 heartbeat IPC: 0.508188 cumulative IPC: 0.508188 (Simulation time: 0 hr 21 min 35 sec) 
epoch: 1000
next table: 1970
cur table: 2225
epoch: 1000
next table: 1985
cur table: 1970
epoch: 1000
next table: 2840
cur table: 2933
epoch: 1000
next table: 1989
cur table: 1985
epoch: 1000
next table: 2178
cur table: 1989
epoch: 1000
next table: 2200
cur table: 2178
epoch: 1000
next table: 2130
cur table: 2200
epoch: 1000
next table: 2639
cur table: 2840
epoch: 1000
next table: 2094
cur table: 2130
epoch: 1000
next table: 2078
cur table: 2094
epoch: 1000
next table: 1860
cur table: 2078
epoch: 1000
next table: 2652
cur table: 2639
epoch: 1000
next table: 1995
cur table: 1860
epoch: 1000
next table: 1966
cur table: 1995
epoch: 1000
next table: 1996
cur table: 1966
epoch: 1000
next table: 2231
cur table: 1996
epoch: 1000
next table: 2658
cur table: 2652
epoch: 1000
next table: 2213
cur table: 2231
epoch: 1000
next table: 1735
cur table: 2213
epoch: 1000
next table: 2010
cur table: 1735
epoch: 1000
next table: 1839
cur table: 2010
epoch: 1000
next table: 1864
cur table: 1839
epoch: 1000
next table: 3301
cur table: 2658
epoch: 1000
next table: 1997
cur table: 1864
epoch: 1000
next table: 2056
cur table: 1997
epoch: 1000
next table: 2103
cur table: 2056
epoch: 1000
next table: 2401
cur table: 2103
epoch: 1000
next table: 2694
cur table: 3301
epoch: 1000
next table: 2323
cur table: 2401
epoch: 1000
next table: 1931
cur table: 2323
epoch: 1000
next table: 2133
cur table: 1931
epoch: 1000
next table: 2135
cur table: 2133
epoch: 1000
next table: 3079
cur table: 2694
epoch: 1000
next table: 2141
cur table: 2135
epoch: 1000
next table: 2023
cur table: 2141
epoch: 1000
next table: 2031
cur table: 2023
epoch: 1000
next table: 2086
cur table: 2031
epoch: 1000
next table: 1990
cur table: 2086
epoch: 1000
next table: 2926
cur table: 3079
epoch: 1000
next table: 1962
cur table: 1990
epoch: 1000
next table: 2079
cur table: 1962
epoch: 1000
next table: 2001
cur table: 2079
epoch: 1000
next table: 1925
cur table: 2001
epoch: 1000
next table: 2077
cur table: 1925
epoch: 1000
next table: 3137
cur table: 2926
epoch: 1000
next table: 2058
cur table: 2077
epoch: 1000
next table: 2072
cur table: 2058
epoch: 1000
next table: 2156
cur table: 2072
epoch: 1000
next table: 1953
cur table: 2156
epoch: 1000
next table: 2868
cur table: 3137
epoch: 1000
next table: 1982
cur table: 1953
epoch: 1000
next table: 2019
cur table: 1982
epoch: 1000
next table: 2143
cur table: 2019
epoch: 1000
next table: 2248
cur table: 2143
epoch: 1000
next table: 2914
cur table: 2868
epoch: 1000
next table: 2131
cur table: 2248
epoch: 1000
next table: 2277
cur table: 2131
epoch: 1000
next table: 2086
cur table: 2277
epoch: 1000
next table: 1861
cur table: 2086
epoch: 1000
next table: 2962
cur table: 2914
epoch: 1000
next table: 2104
cur table: 1861
epoch: 1000
next table: 2040
cur table: 2104
epoch: 1000
next table: 2059
cur table: 2040
epoch: 1000
next table: 2016
cur table: 2059
epoch: 1000
next table: 3003
cur table: 2962
epoch: 1000
next table: 2058
cur table: 2016
epoch: 1000
next table: 2002
cur table: 2058
epoch: 1000
next table: 2108
cur table: 2002
epoch: 1000
next table: 1982
cur table: 2108
epoch: 1000
next table: 1975
cur table: 1982
epoch: 1000
next table: 3072
cur table: 3003
epoch: 1000
next table: 2200
cur table: 1975
epoch: 1000
next table: 2072
cur table: 2200
epoch: 1000
next table: 1962
cur table: 2072
epoch: 1000
next table: 2001
cur table: 1962
epoch: 1000
next table: 3019
cur table: 3072
epoch: 1000
next table: 1987
cur table: 2001
epoch: 1000
next table: 2138
cur table: 1987
epoch: 1000
next table: 2069
cur table: 2138
epoch: 1000
next table: 2161
cur table: 2069
epoch: 1000
next table: 2924
cur table: 3019
epoch: 1000
next table: 2071
cur table: 2161
epoch: 1000
next table: 2025
cur table: 2071
epoch: 1000
next table: 1944
cur table: 2025
epoch: 1000
next table: 1969
cur table: 1944
Heartbeat CPU 0 instructions: 70000000 cycles: 52719273 heartbeat IPC: 0.524874 cumulative IPC: 0.516396 (Simulation time: 0 hr 24 min 15 sec) 
epoch: 1000
next table: 2132
cur table: 1969
epoch: 1000
next table: 2914
cur table: 2924
epoch: 1000
next table: 2058
cur table: 2132
epoch: 1000
next table: 1829
cur table: 2058
epoch: 1000
next table: 2075
cur table: 1829
epoch: 1000
next table: 2006
cur table: 2075
epoch: 1000
next table: 2931
cur table: 2914
epoch: 1000
next table: 2024
cur table: 2006
epoch: 1000
next table: 2043
cur table: 2024
epoch: 1000
next table: 2349
cur table: 2043
epoch: 1000
next table: 2101
cur table: 2349
epoch: 1000
next table: 2760
cur table: 2931
epoch: 1000
next table: 2178
cur table: 2101
epoch: 1000
next table: 1998
cur table: 2178
epoch: 1000
next table: 2015
cur table: 1998
epoch: 1000
next table: 2065
cur table: 2015
epoch: 1000
next table: 3219
cur table: 2760
epoch: 1000
next table: 2106
cur table: 2065
epoch: 1000
next table: 2060
cur table: 2106
epoch: 1000
next table: 1993
cur table: 2060
epoch: 1000
next table: 1952
cur table: 1993
epoch: 1000
next table: 2684
cur table: 3219
epoch: 1000
next table: 2203
cur table: 1952
epoch: 1000
next table: 2220
cur table: 2203
epoch: 1000
next table: 2051
cur table: 2220
epoch: 1000
next table: 2132
cur table: 2051
epoch: 1000
next table: 2099
cur table: 2132
epoch: 1000
next table: 3329
cur table: 2684
epoch: 1000
next table: 2011
cur table: 2099
epoch: 1000
next table: 2229
cur table: 2011
epoch: 1000
next table: 2016
cur table: 2229
epoch: 1000
next table: 2033
cur table: 2016
epoch: 1000
next table: 2930
cur table: 3329
epoch: 1000
next table: 2179
cur table: 2033
epoch: 1000
next table: 2314
cur table: 2179
epoch: 1000
next table: 2082
cur table: 2314
epoch: 1000
next table: 2000
cur table: 2082
epoch: 1000
next table: 1938
cur table: 2000
epoch: 1000
next table: 3411
cur table: 2930
epoch: 1000
next table: 1956
cur table: 1938
epoch: 1000
next table: 2011
cur table: 1956
epoch: 1000
next table: 2072
cur table: 2011
epoch: 1000
next table: 2030
cur table: 2072
epoch: 1000
next table: 2032
cur table: 2030
epoch: 1000
next table: 2100
cur table: 2032
epoch: 1000
next table: 3352
cur table: 3411
epoch: 1000
next table: 2212
cur table: 2100
epoch: 1000
next table: 2037
cur table: 2212
epoch: 1000
next table: 1990
cur table: 2037
epoch: 1000
next table: 1976
cur table: 1990
epoch: 1000
next table: 2962
cur table: 3352
epoch: 1000
next table: 2036
cur table: 1976
epoch: 1000
next table: 1948
cur table: 2036
epoch: 1000
next table: 1981
cur table: 1948
epoch: 1000
next table: 1973
cur table: 1981
epoch: 1000
next table: 2893
cur table: 2962
epoch: 1000
next table: 2023
cur table: 1973
epoch: 1000
next table: 1998
cur table: 2023
epoch: 1000
next table: 1949
cur table: 1998
epoch: 1000
next table: 1985
cur table: 1949
epoch: 1000
next table: 2744
cur table: 2893
epoch: 1000
next table: 1971
cur table: 1985
epoch: 1000
next table: 1980
cur table: 1971
epoch: 1000
next table: 2102
cur table: 1980
epoch: 1000
next table: 2282
cur table: 2102
epoch: 1000
next table: 1978
cur table: 2282
epoch: 1000
next table: 3095
cur table: 2744
epoch: 1000
next table: 2011
cur table: 1978
epoch: 1000
next table: 1986
cur table: 2011
epoch: 1000
next table: 1914
cur table: 1986
epoch: 1000
next table: 1939
cur table: 1914
epoch: 1000
next table: 3087
cur table: 3095
epoch: 1000
next table: 1779
cur table: 1939
epoch: 1000
next table: 1809
cur table: 1779
epoch: 1000
next table: 2073
cur table: 1809
epoch: 1000
next table: 2040
cur table: 2073
epoch: 1000
next table: 2815
cur table: 3087
epoch: 1000
next table: 2066
cur table: 2040
epoch: 1000
next table: 2002
cur table: 2066
epoch: 1000
next table: 1995
cur table: 2002
epoch: 1000
next table: 1967
cur table: 1995
epoch: 1000
next table: 1971
cur table: 1967
epoch: 1000
next table: 3167
cur table: 2815
epoch: 1000
next table: 1835
cur table: 1971
epoch: 1000
next table: 1964
cur table: 1835
epoch: 1000
next table: 2000
cur table: 1964
epoch: 1000
next table: 2052
cur table: 2000
epoch: 1000
next table: 1943
cur table: 2052
epoch: 1000
next table: 2983
cur table: 3167
epoch: 1000
next table: 1977
cur table: 1943
epoch: 1000
next table: 1924
cur table: 1977
epoch: 1000
next table: 2066
cur table: 1924
Heartbeat CPU 0 instructions: 80000003 cycles: 72086810 heartbeat IPC: 0.516328 cumulative IPC: 0.516373 (Simulation time: 0 hr 26 min 46 sec) 
epoch: 1000
next table: 1954
cur table: 2066
epoch: 1000
next table: 3125
cur table: 2983
epoch: 1000
next table: 2037
cur table: 1954
epoch: 1000
next table: 2044
cur table: 2037
epoch: 1000
next table: 2015
cur table: 2044
epoch: 1000
next table: 2004
cur table: 2015
epoch: 1000
next table: 2066
cur table: 2004
epoch: 1000
next table: 3007
cur table: 3125
epoch: 1000
next table: 2046
cur table: 2066
epoch: 1000
next table: 1983
cur table: 2046
epoch: 1000
next table: 2032
cur table: 1983
epoch: 1000
next table: 2009
cur table: 2032
epoch: 1000
next table: 3094
cur table: 3007
epoch: 1000
next table: 2053
cur table: 2009
epoch: 1000
next table: 2007
cur table: 2053
epoch: 1000
next table: 1948
cur table: 2007
epoch: 1000
next table: 1996
cur table: 1948
epoch: 1000
next table: 2020
cur table: 1996
epoch: 1000
next table: 3014
cur table: 3094
epoch: 1000
next table: 1977
cur table: 2020
epoch: 1000
next table: 1932
cur table: 1977
epoch: 1000
next table: 2101
cur table: 1932
epoch: 1000
next table: 2038
cur table: 2101
epoch: 1000
next table: 3023
cur table: 3014
epoch: 1000
next table: 1988
cur table: 2038
epoch: 1000
next table: 2064
cur table: 1988
epoch: 1000
next table: 2046
cur table: 2064
epoch: 1000
next table: 2033
cur table: 2046
epoch: 1000
next table: 2964
cur table: 3023
epoch: 1000
next table: 1939
cur table: 2033
epoch: 1000
next table: 1995
cur table: 1939
epoch: 1000
next table: 1879
cur table: 1995
epoch: 1000
next table: 2023
cur table: 1879
epoch: 1000
next table: 2018
cur table: 2023
epoch: 1000
next table: 3083
cur table: 2964
epoch: 1000
next table: 1951
cur table: 2018
epoch: 1000
next table: 1950
cur table: 1951
epoch: 1000
next table: 2066
cur table: 1950
epoch: 1000
next table: 2024
cur table: 2066
epoch: 1000
next table: 2919
cur table: 3083
epoch: 1000
next table: 1930
cur table: 2024
epoch: 1000
next table: 2032
cur table: 1930
epoch: 1000
next table: 2031
cur table: 2032
epoch: 1000
next table: 2038
cur table: 2031
epoch: 1000
next table: 2925
cur table: 2919
epoch: 1000
next table: 2104
cur table: 2038
epoch: 1000
next table: 2037
cur table: 2104
epoch: 1000
next table: 1928
cur table: 2037
epoch: 1000
next table: 1866
cur table: 1928
epoch: 1000
next table: 2744
cur table: 2925
epoch: 1000
next table: 1883
cur table: 1866
epoch: 1000
next table: 2071
cur table: 1883
epoch: 1000
next table: 2168
cur table: 2071
epoch: 1000
next table: 2009
cur table: 2168
epoch: 1000
next table: 2971
cur table: 2744
epoch: 1000
next table: 2123
cur table: 2009
epoch: 1000
next table: 2172
cur table: 2123
epoch: 1000
next table: 2037
cur table: 2172
epoch: 1000
next table: 1926
cur table: 2037
epoch: 1000
next table: 2917
cur table: 2971
epoch: 1000
next table: 2019
cur table: 1926
epoch: 1000
next table: 2037
cur table: 2019
epoch: 1000
next table: 1945
cur table: 2037
epoch: 1000
next table: 2028
cur table: 1945
epoch: 1000
next table: 1974
cur table: 2028
epoch: 1000
next table: 2986
cur table: 2917
epoch: 1000
next table: 2133
cur table: 1974
epoch: 1000
next table: 2062
cur table: 2133
epoch: 1000
next table: 1974
cur table: 2062
epoch: 1000
next table: 1961
cur table: 1974
epoch: 1000
next table: 2870
cur table: 2986
epoch: 1000
next table: 2135
cur table: 1961
epoch: 1000
next table: 2150
cur table: 2135
epoch: 1000
next table: 2238
cur table: 2150
epoch: 1000
next table: 1787
cur table: 2238
epoch: 1000
next table: 2582
cur table: 2870
epoch: 1000
next table: 1904
cur table: 1787
epoch: 1000
next table: 2250
cur table: 1904
epoch: 1000
next table: 2037
cur table: 2250
epoch: 1000
next table: 2010
cur table: 2037
epoch: 1000
next table: 3061
cur table: 2582
epoch: 1000
next table: 1886
cur table: 2010
epoch: 1000
next table: 1929
cur table: 1886
epoch: 1000
next table: 2064
cur table: 1929
epoch: 1000
next table: 2077
cur table: 2064
epoch: 1000
next table: 2272
cur table: 2077
epoch: 1000
next table: 3006
cur table: 3061
epoch: 1000
next table: 2375
cur table: 2272
epoch: 1000
next table: 2029
cur table: 2375
epoch: 1000
next table: 2034
cur table: 2029
epoch: 1000
next table: 2040
cur table: 2034
epoch: 1000
next table: 2956
cur table: 3006
epoch: 1000
next table: 2163
cur table: 2040
epoch: 1000
next table: 2045
cur table: 2163
epoch: 1000
next table: 2071
cur table: 2045
epoch: 1000
next table: 2060
cur table: 2071
epoch: 1000
next table: 2080
cur table: 2060
epoch: 1000
next table: 3187
cur table: 2956
Heartbeat CPU 0 instructions: 90000002 cycles: 91745679 heartbeat IPC: 0.508676 cumulative IPC: 0.514427 (Simulation time: 0 hr 29 min 15 sec) 
epoch: 1000
next table: 2136
cur table: 2080
epoch: 1000
next table: 2081
cur table: 2136
epoch: 1000
next table: 2121
cur table: 2081
epoch: 1000
next table: 2259
cur table: 2121
epoch: 1000
next table: 2741
cur table: 3187
epoch: 1000
next table: 2151
cur table: 2259
epoch: 1000
next table: 2101
cur table: 2151
epoch: 1000
next table: 2065
cur table: 2101
epoch: 1000
next table: 2042
cur table: 2065
epoch: 1000
next table: 3063
cur table: 2741
epoch: 1000
next table: 1943
cur table: 2042
epoch: 1000
next table: 2060
cur table: 1943
epoch: 1000
next table: 2104
cur table: 2060
epoch: 1000
next table: 1954
cur table: 2104
epoch: 1000
next table: 1955
cur table: 1954
epoch: 1000
next table: 3192
cur table: 3063
epoch: 1000
next table: 1950
cur table: 1955
epoch: 1000
next table: 1979
cur table: 1950
epoch: 1000
next table: 2057
cur table: 1979
epoch: 1000
next table: 2525
cur table: 3192
epoch: 1000
next table: 1825
cur table: 2057
epoch: 1000
next table: 1923
cur table: 1825
epoch: 1000
next table: 1954
cur table: 1923
epoch: 1000
next table: 2487
cur table: 2525
epoch: 1000
next table: 1931
cur table: 1954
epoch: 1000
next table: 1993
cur table: 1931
epoch: 1000
next table: 1973
cur table: 1993
epoch: 1000
next table: 1908
cur table: 1973
epoch: 1000
next table: 2682
cur table: 2487
epoch: 1000
next table: 1799
cur table: 1908
epoch: 1000
next table: 2030
cur table: 1799
epoch: 1000
next table: 2022
cur table: 2030
epoch: 1000
next table: 2147
cur table: 2022
epoch: 1000
next table: 1937
cur table: 2147
epoch: 1000
next table: 1934
cur table: 1937
epoch: 1000
next table: 3877
cur table: 2682
epoch: 1000
next table: 1911
cur table: 1934
epoch: 1000
next table: 2087
cur table: 1911
epoch: 1000
next table: 1996
cur table: 2087
epoch: 1000
next table: 1900
cur table: 1996
epoch: 1000
next table: 2058
cur table: 1900
epoch: 1000
next table: 1919
cur table: 2058
epoch: 1000
next table: 2053
cur table: 1919
epoch: 1000
next table: 4075
cur table: 3877
epoch: 1000
next table: 1756
cur table: 2053
epoch: 1000
next table: 2052
cur table: 1756
epoch: 1000
next table: 2083
cur table: 2052
epoch: 1000
next table: 1972
cur table: 2083
epoch: 1000
next table: 3132
cur table: 4075
epoch: 1000
next table: 2134
cur table: 1972
epoch: 1000
next table: 1957
cur table: 2134
epoch: 1000
next table: 1986
cur table: 1957
epoch: 1000
next table: 2172
cur table: 1986
epoch: 1000
next table: 1976
cur table: 2172
epoch: 1000
next table: 1943
cur table: 1976
epoch: 1000
next table: 2099
cur table: 1943
epoch: 1000
next table: 3848
cur table: 3132
epoch: 1000
next table: 1934
cur table: 2099
epoch: 1000
next table: 2130
cur table: 1934
epoch: 1000
next table: 1940
cur table: 2130
epoch: 1000
next table: 2359
cur table: 1940
epoch: 1000
next table: 2262
cur table: 2359
epoch: 1000
next table: 3449
cur table: 3848
epoch: 1000
next table: 1887
cur table: 2262
epoch: 1000
next table: 2385
cur table: 1887
epoch: 1000
next table: 2154
cur table: 2385
epoch: 1000
next table: 2045
cur table: 2154
epoch: 1000
next table: 3093
cur table: 3449
epoch: 1000
next table: 2209
cur table: 2045
epoch: 1000
next table: 2104
cur table: 2209
epoch: 1000
next table: 2005
cur table: 2104
epoch: 1000
next table: 2167
cur table: 2005
epoch: 1000
next table: 2267
cur table: 2167
epoch: 1000
next table: 1915
cur table: 2267
epoch: 1000
next table: 3440
cur table: 3093
epoch: 1000
next table: 2100
cur table: 1915
epoch: 1000
next table: 2241
cur table: 2100
epoch: 1000
next table: 1959
cur table: 2241
epoch: 1000
next table: 2075
cur table: 1959
epoch: 1000
next table: 3113
cur table: 3440
epoch: 1000
next table: 2059
cur table: 2075
Heartbeat CPU 0 instructions: 100000001 cycles: 110794218 heartbeat IPC: 0.524975 cumulative IPC: 0.516503 (Simulation time: 0 hr 33 min 48 sec) 
Finished CPU 0 instructions: 50000001 cycles: 96804896 cumulative IPC: 0.516503 (Simulation time: 0 hr 33 min 48 sec) 

ChampSim completed all CPUs

Region of Interest Statistics

CPU 0 cumulative IPC: 0.516503 instructions: 50000001 cycles: 96804896
ITLB TOTAL     ACCESS:    7242683  HIT:    7242683  MISS:          0  HIT %:        100  MISS %:          0   MPKI: 0
ITLB LOAD TRANSLATION ACCESS:    7242683  HIT:    7242683  MISS:          0  HIT %:        100  MISS %:          0   MPKI: 0
ITLB PREFETCH  REQUESTED:          0  ISSUED:          0  USEFUL:          0  USELESS:          0
ITLB USEFUL LOAD PREFETCHES:          0 PREFETCH ISSUED TO LOWER LEVEL:          0  ACCURACY: -nan
ITLB TIMELY PREFETCHES:          0 LATE PREFETCHES: 0 DROPPED PREFETCHES: 0
ITLB PREFETCHES SAME FILL-ORIGIN LEVEL: 0 DIFFERENT FILL-ORIGIN LEVEL: 0
ITLB AVERAGE MISS LATENCY: -nan cycles
ITLB RQ	ACCESS:    8573986	FORWARD:          0	MERGED:    1331304	TO_CACHE:    7242682

Revised Interactions: positive negative neutral
ITLB_interactions 0 0 0 -nan -nan -nan
DTLB TOTAL     ACCESS:   10100917  HIT:    9798976  MISS:     301941  HIT %:    97.0108  MISS %:    2.98924   MPKI: 6.03882
DTLB LOAD TRANSLATION ACCESS:   10100917  HIT:    9798976  MISS:     301941  HIT %:    97.0108  MISS %:    2.98924   MPKI: 6.03882
DTLB PREFETCH  REQUESTED:          0  ISSUED:          0  USEFUL:          0  USELESS:          0
DTLB USEFUL LOAD PREFETCHES:          0 PREFETCH ISSUED TO LOWER LEVEL:          0  ACCURACY: -nan
DTLB TIMELY PREFETCHES:          0 LATE PREFETCHES: 0 DROPPED PREFETCHES: 0
DTLB PREFETCHES SAME FILL-ORIGIN LEVEL: 0 DIFFERENT FILL-ORIGIN LEVEL: 0
DTLB AVERAGE MISS LATENCY: 14.6854 cycles
DTLB RQ	ACCESS:   12068445	FORWARD:          0	MERGED:    1965416	TO_CACHE:   10103029

Revised Interactions: positive negative neutral
DTLB_interactions 0 0 0 -nan -nan -nan
STLB TOTAL     ACCESS:    1331962  HIT:    1285341  MISS:      46621  HIT %:    96.4998  MISS %:    3.50017   MPKI: 0.93242
STLB LOAD TRANSLATION ACCESS:     301941  HIT:     255320  MISS:      46621  HIT %:    84.5596  MISS %:    15.4404   MPKI: 0.93242
STLB TRANSLATION FROM L1D PREFETCHER ACCESS:    1030021  HIT:    1030021  MISS:          0  HIT %:        100  MISS %:          0   MPKI: 0
STLB PREFETCH  REQUESTED:          0  ISSUED:          0  USEFUL:          0  USELESS:          0
STLB USEFUL LOAD PREFETCHES:          0 PREFETCH ISSUED TO LOWER LEVEL:          0  ACCURACY: -nan
STLB TIMELY PREFETCHES:          0 LATE PREFETCHES: 0 DROPPED PREFETCHES: 0
STLB PREFETCHES SAME FILL-ORIGIN LEVEL: 0 DIFFERENT FILL-ORIGIN LEVEL: 0
STLB AVERAGE MISS LATENCY: 36.7733 cycles
STLB RQ	ACCESS:    1541674	FORWARD:          0	MERGED:     209712	TO_CACHE:    1331962

Revised Interactions: positive negative neutral
STLB_interactions 0 0 0 -nan -nan -nan
STLB Hit, L1D data hit: 0
STLB Hit, L2C data hit: 0
STLB Hit, LLC data hit: 0
STLB Hit, LLC data miss: 0
STLB STLB hints to L2: 0
L1D TOTAL     ACCESS:   13266931  HIT:   12555775  MISS:     711156  HIT %:    94.6396  MISS %:    5.36037   MPKI: 14.2231
L1D LOAD      ACCESS:    8270270  HIT:    7975518  MISS:     294752  HIT %:     96.436  MISS %:    3.56399   MPKI: 5.89504
L1D RFO       ACCESS:    3758069  HIT:    3718726  MISS:      39343  HIT %:    98.9531  MISS %:    1.04689   MPKI: 0.78686
L1D PREFETCH  ACCESS:    1238592  HIT:     861531  MISS:     377061  HIT %:    69.5573  MISS %:    30.4427   MPKI: 7.54122
L1D PREFETCH  REQUESTED:    2479859  ISSUED:    2479859  USEFUL:      44710  USELESS:     332330
L1D USEFUL LOAD PREFETCHES:      44710 PREFETCH ISSUED TO LOWER LEVEL:     377072  ACCURACY: 11.8572
L1D TIMELY PREFETCHES:      44710 LATE PREFETCHES: 1025 DROPPED PREFETCHES: 0
L1D PREFETCHES SAME FILL-ORIGIN LEVEL: 377072 DIFFERENT FILL-ORIGIN LEVEL: 0
L1D AVERAGE MISS LATENCY: 1047.31 cycles
L1D RQ	ACCESS:   11316016	FORWARD:          0	MERGED:    2993111	TO_CACHE:    8299302
L1D WQ	ACCESS:    3834337	FORWARD:      23996	MERGED:      65194	TO_CACHE:    3769143
L1D PQ	ACCESS:    1240126	FORWARD:          0	MERGED:          0	TO_CACHE:    1239733

Revised Interactions: positive negative neutral
L1D_interactions 0 0 0 -nan -nan -nan
L1D UNIQUE REGIONS ACCESSED: 0
L1D REGIONS CONFLICTS: 0
L1D Cross Page Prefetch Requests: 0
L1D Same Page Prefetch Requests: 2493841
L1D ROI Sum of L1D PQ occupancy: 16141144
L1D PREFETCHES PUSHED FROM L2C: 0
L1I TOTAL     ACCESS:    8573938  HIT:    8573839  MISS:         99  HIT %:    99.9988  MISS %: 0.00115466   MPKI: 0.00198
L1I LOAD      ACCESS:    8573938  HIT:    8573839  MISS:         99  HIT %:    99.9988  MISS %: 0.00115466   MPKI: 0.00198
L1I PREFETCH  REQUESTED:          0  ISSUED:          0  USEFUL:          0  USELESS:          0
L1I USEFUL LOAD PREFETCHES:          0 PREFETCH ISSUED TO LOWER LEVEL:          0  ACCURACY: -nan
L1I TIMELY PREFETCHES:          0 LATE PREFETCHES: 0 DROPPED PREFETCHES: 0
L1I PREFETCHES SAME FILL-ORIGIN LEVEL: 0 DIFFERENT FILL-ORIGIN LEVEL: 0
L1I AVERAGE MISS LATENCY: 113.091 cycles
L1I RQ	ACCESS:   13066676	FORWARD:          0	MERGED:    4492690	TO_CACHE:    8573986

Revised Interactions: positive negative neutral
L1I_interactions 0 0 0 -nan -nan -nan
BTB TOTAL     ACCESS:    6282462  HIT:    6229962  MISS:      52500  HIT %:    99.1643  MISS %:    0.83566   MPKI: 1.05
BTB BRANCH_DIRECT_JUMP	ACCESS:     665651  HIT:     665574  MISS:         77
BTB BRANCH_INDIRECT	ACCESS:      91529  HIT:      41384  MISS:      50145
BTB BRANCH_CONDITIONAL	ACCESS:    5411196  HIT:    5410957  MISS:        239
BTB BRANCH_DIRECT_CALL	ACCESS:      35840  HIT:      35821  MISS:         19
BTB BRANCH_INDIRECT_CALL	ACCESS:      21203  HIT:      21196  MISS:          7
BTB BRANCH_RETURN	ACCESS:      57043  HIT:      55030  MISS:       2013
BTB BRANCH_OTHER ACCESS:          0  HIT:          0  MISS:          0

L2C TOTAL     ACCESS:    1006520  HIT:     596875  MISS:     409645  HIT %:    59.3009  MISS %:    40.6991   MPKI: 8.1929
L2C LOAD      ACCESS:     294851  HIT:     146925  MISS:     147926  HIT %:    49.8303  MISS %:    50.1697   MPKI: 2.95852
L2C DATA LOAD MPKI: 2.95654
L2C INSTRUCTION LOAD MPKI: 0.00198
L2C RFO       ACCESS:      39333  HIT:      26078  MISS:      13255  HIT %:    66.3006  MISS %:    33.6994   MPKI: 0.2651
L2C PREFETCH  ACCESS:     382848  HIT:     183313  MISS:     199535  HIT %:    47.8814  MISS %:    52.1186   MPKI: 3.9907
L2C DATA PREFETCH MPKI: 3.9907
L2C INSTRUCTION PREFETCH MPKI: 0
L2C WRITEBACK ACCESS:     242840  HIT:     200977  MISS:      41863  HIT %:    82.7611  MISS %:    17.2389   MPKI: 0.83726
L2C LOAD TRANSLATION ACCESS:      46648  HIT:      39582  MISS:       7066  HIT %:    84.8525  MISS %:    15.1475   MPKI: 0.14132
L2C PREFETCH  REQUESTED:       6209  ISSUED:       6209  USEFUL:       4792  USELESS:     194567
L2C USEFUL LOAD PREFETCHES:       4792 PREFETCH ISSUED TO LOWER LEVEL:     199541  ACCURACY: 2.40151
L2C TIMELY PREFETCHES:       4792 LATE PREFETCHES: 6 DROPPED PREFETCHES: 0
L2C PREFETCHES SAME FILL-ORIGIN LEVEL: 654 DIFFERENT FILL-ORIGIN LEVEL: 0
L2C AVERAGE MISS LATENCY: 98.9034 cycles
L2C RQ	ACCESS:     380832	FORWARD:          0	MERGED:          0	TO_CACHE:     380832
L2C WQ	ACCESS:     242840	FORWARD:          1	MERGED:          0	TO_CACHE:     242840
L2C PQ	ACCESS:     383281	FORWARD:          0	MERGED:        405	TO_CACHE:     382875

Revised Interactions: positive negative neutral
L2C_interactions 8887 196540 73094 3.19078 70.5656 26.2436
L2C Instructions Evicting Data 96
L2C Translations Evicting Data 6886
L2C Data Evicting Data 354261
L2C Instructions Evicting Instructions 2
L2C Translations Evicting Instructions 1
L2C Data Evicting Instructions 87
L2C Instructions Evicting Translations 1
L2C Translations Evicting Translations 179
L2C Data Evicting Translations 6269
L2C Dense regions hint from L2: 0
PSCL5 TOTAL     ACCESS:      46621  HIT:      46621  MISS:          0  HIT %:        100  MISS %:          0   MPKI: 0
PSCL5 LOAD TRANSLATION ACCESS:      46621  HIT:      46621  MISS:          0  HIT %:        100  MISS %:          0   MPKI: 0
PSCL5 PREFETCH  REQUESTED:          0  ISSUED:          0  USEFUL:          0  USELESS:          0
PSCL5 USEFUL LOAD PREFETCHES:          0 PREFETCH ISSUED TO LOWER LEVEL:          0  ACCURACY: -nan
PSCL5 TIMELY PREFETCHES:          0 LATE PREFETCHES: 0 DROPPED PREFETCHES: 0
PSCL5 PREFETCHES SAME FILL-ORIGIN LEVEL: 0 DIFFERENT FILL-ORIGIN LEVEL: 0

Revised Interactions: positive negative neutral
PSCL5_interactions 0 0 0 -nan -nan -nan
PSCL4 TOTAL     ACCESS:      46621  HIT:      46621  MISS:          0  HIT %:        100  MISS %:          0   MPKI: 0
PSCL4 LOAD TRANSLATION ACCESS:      46621  HIT:      46621  MISS:          0  HIT %:        100  MISS %:          0   MPKI: 0
PSCL4 PREFETCH  REQUESTED:          0  ISSUED:          0  USEFUL:          0  USELESS:          0
PSCL4 USEFUL LOAD PREFETCHES:          0 PREFETCH ISSUED TO LOWER LEVEL:          0  ACCURACY: -nan
PSCL4 TIMELY PREFETCHES:          0 LATE PREFETCHES: 0 DROPPED PREFETCHES: 0
PSCL4 PREFETCHES SAME FILL-ORIGIN LEVEL: 0 DIFFERENT FILL-ORIGIN LEVEL: 0

Revised Interactions: positive negative neutral
PSCL4_interactions 0 0 0 -nan -nan -nan
PSCL3 TOTAL     ACCESS:      46621  HIT:      46621  MISS:          0  HIT %:        100  MISS %:          0   MPKI: 0
PSCL3 LOAD TRANSLATION ACCESS:      46621  HIT:      46621  MISS:          0  HIT %:        100  MISS %:          0   MPKI: 0
PSCL3 PREFETCH  REQUESTED:          0  ISSUED:          0  USEFUL:          0  USELESS:          0
PSCL3 USEFUL LOAD PREFETCHES:          0 PREFETCH ISSUED TO LOWER LEVEL:          0  ACCURACY: -nan
PSCL3 TIMELY PREFETCHES:          0 LATE PREFETCHES: 0 DROPPED PREFETCHES: 0
PSCL3 PREFETCHES SAME FILL-ORIGIN LEVEL: 0 DIFFERENT FILL-ORIGIN LEVEL: 0

Revised Interactions: positive negative neutral
PSCL3_interactions 0 0 0 -nan -nan -nan
PSCL2 TOTAL     ACCESS:      46621  HIT:      46594  MISS:         27  HIT %:    99.9421  MISS %:  0.0579138   MPKI: 0.00054
PSCL2 LOAD TRANSLATION ACCESS:      46621  HIT:      46594  MISS:         27  HIT %:    99.9421  MISS %:  0.0579138   MPKI: 0.00054
PSCL2 PREFETCH  REQUESTED:          0  ISSUED:          0  USEFUL:          0  USELESS:          0
PSCL2 USEFUL LOAD PREFETCHES:          0 PREFETCH ISSUED TO LOWER LEVEL:          0  ACCURACY: -nan
PSCL2 TIMELY PREFETCHES:          0 LATE PREFETCHES: 0 DROPPED PREFETCHES: 0
PSCL2 PREFETCHES SAME FILL-ORIGIN LEVEL: 0 DIFFERENT FILL-ORIGIN LEVEL: 0

Revised Interactions: positive negative neutral
PSCL2_interactions 0 0 0 -nan -nan -nan
LLC TOTAL     ACCESS:     495016  HIT:     272478  MISS:     222538  HIT %:    55.0443  MISS %:    44.9557   MPKI: 4.45076
LLC LOAD      ACCESS:     147920  HIT:      81767  MISS:      66153  HIT %:    55.2779  MISS %:    44.7221   MPKI: 1.32306
LLC RFO       ACCESS:      13255  HIT:       5740  MISS:       7515  HIT %:    43.3044  MISS %:    56.6956   MPKI: 0.1503
LLC PREFETCH  ACCESS:     199541  HIT:     105666  MISS:      93875  HIT %:    52.9545  MISS %:    47.0455   MPKI: 1.8775
LLC WRITEBACK ACCESS:     127234  HIT:      74608  MISS:      52626  HIT %:    58.6384  MISS %:    41.3616   MPKI: 1.05252
LLC LOAD TRANSLATION ACCESS:       7066  HIT:       4697  MISS:       2369  HIT %:    66.4733  MISS %:    33.5267   MPKI: 0.04738
LLC PREFETCH  REQUESTED:          0  ISSUED:          0  USEFUL:       4997  USELESS:      41428
LLC USEFUL LOAD PREFETCHES:       4997 PREFETCH ISSUED TO LOWER LEVEL:      93875  ACCURACY: 5.32304
LLC TIMELY PREFETCHES:       4997 LATE PREFETCHES: 0 DROPPED PREFETCHES: 0
LLC PREFETCHES SAME FILL-ORIGIN LEVEL: 0 DIFFERENT FILL-ORIGIN LEVEL: 0
LLC AVERAGE MISS LATENCY: 132.395 cycles
LLC RQ	ACCESS:     168241	FORWARD:          0	MERGED:          0	TO_CACHE:     168241
LLC WQ	ACCESS:     127234	FORWARD:          0	MERGED:          0	TO_CACHE:     127234
LLC PQ	ACCESS:     199541	FORWARD:          0	MERGED:          0	TO_CACHE:     199541

Revised Interactions: positive negative neutral
LLC_interactions 1188 42515 11109 2.16741 77.5651 20.2675
LLC Dense regions hint to LLC: 0

RAW hits: 442849
Loads Generated: 11758865
Loads sent to L1D: 11316016
Stores Generated: 3834339
Stores sent to L1D: 3834337
Major fault: 0 Minor fault: 7115
Allocated PAGES: 7115

stream: 
stream:times selected: 3346769
stream:pref_filled: 533474
stream:pref_useful: 56682
stream:pref_late: 883
stream:misses: 94113
stream:misses_by_poll: 0

CS: 
CS:times selected: 291387
CS:pref_filled: 27995
CS:pref_useful: 20598
CS:pref_late: 12
CS:misses: 797
CS:misses_by_poll: 3

CPLX: 
CPLX:times selected: 3036544
CPLX:pref_filled: 168688
CPLX:pref_useful: 11276
CPLX:pref_late: 104
CPLX:misses: 401489
CPLX:misses_by_poll: 316

NL_L1: 
NL:times selected: 17520
NL:pref_filled: 5560
NL:pref_useful: 758
NL:pref_late: 11
NL:misses: 4281
NL:misses_by_poll: 0

total selections: 6692220
total_filled: 377061
total_useful: 44710
total_late: 1015
total_polluted: 319
total_misses_after_warmup: 323784
conflicts: 392848
Degree Incremented Times: 0
Degree Decremented Times: 217933

L1 IP Table Write Accesses: 7496491
L1 IP Table Read Accesses: 7103643
L1 RST Write Accesses: 1691857
L1 RST Read Accesses: 3383714
L1 CSPT Write Accesses: 1691857
L1 CSPT Read Accesses: 3235191
L1 RR Filter Tag Write Accesses: 1240126
L1 RR Filter Tag Read Accesses: 67168344
L1 IP Table Tag Write Accesses: 8299302
L1 IP Table Tag Read Accesses: 8299302
L1 RST Tag Write Accesses: 0
L1 RST Tag Read Accesses: 15415900
L1 RR Filter Write Accesses: 0
L1 RR Filter Read Accesses: 2445731
test: 1265727
L2 IP Table Read Accesses: 1336520
L2 IP Table Write Accesses: 1048367
L2 IP Table Tag Read Accesses: 671384
L2 IP Table Tag Write Accesses: 671384

DRAM Statistics
 CHANNEL 0
 RQ ROW_BUFFER_HIT:       4280  ROW_BUFFER_MISS:     165629
 DBUS_CONGESTED:          3
 WQ ROW_BUFFER_HIT:      11048  ROW_BUFFER_MISS:      59579  FULL:          0

 AVG_CONGESTED_CYCLE: 3
 All warmup complete: 2
Channel 0 Bank busy for read cycles: 0
Channel 0 Bank busy for write cycles: 0
Channel 0
Rank 0
0banks busy for read cycles: 71852330
0banks busy for write cycles: 43994
1banks busy for read cycles: 9335680
1banks busy for write cycles: 6378093
2banks busy for read cycles: 5109567
2banks busy for write cycles: 1741267
3banks busy for read cycles: 1161371
3banks busy for write cycles: 487147
4banks busy for read cycles: 333123
4banks busy for write cycles: 154750
5banks busy for read cycles: 93584
5banks busy for write cycles: 45092
6banks busy for read cycles: 27662
6banks busy for write cycles: 20374
7banks busy for read cycles: 6286
7banks busy for write cycles: 7183
8banks busy for read cycles: 1132
8banks busy for write cycles: 6262

CPU 0 Branch Prediction Accuracy: 87.826% MPKI: 16.1242 Average ROB Occupancy at Mispredict: 21.1994
Branch types
NOT_BRANCH: 43377258 86.7545%
BRANCH_DIRECT_JUMP: 665651 1.3313%
BRANCH_INDIRECT: 91529 0.183058%
BRANCH_CONDITIONAL: 5751130 11.5023%
BRANCH_DIRECT_CALL: 35840 0.07168%
BRANCH_INDIRECT_CALL: 21203 0.042406%
BRANCH_RETURN: 57043 0.114086%
BRANCH_OTHER: 0 0%

@sumon_overall_L1D     44710      1025      1025    332330    377061   2479859   2479859
@Sumon_Early_by_class_L1D     28258      9797      6216         7
@Sumon_Late_by_class_L1D       702         8        85         7

@Sumon_Early_by_cycle_L1D      2496      1686       625       297       322      2510      6178      6070      6462      8835      5836      3393
@Sumon_Late_by_cycle_L1D       345       318        81        17        46         0
@Sumon_Early_stream_L1D      2262      1131       277       219       256      2047      3993      3887      3227      4772      3982      2205
@Sumon_Early_CS_L1D        15       445       302        28        18       123      1581      1520      2405      2456       347       557
@Sumon_Early_CPLX_L1D       186       104        43        40        44       305       527       607       774      1526      1457       603
@Sumon_Late_stream_L1D       294       284        69        15        40         0
@Sumon_Late_CS_L1D         4         2         0         0         2         0
@Sumon_Late_CPLX_L1D        40        30         9         2         4         0
@sumon_overall_L2C      4792         6         0    194567    199535      6209      6209
@Sumon_Early_by_class_L2C      2897       258      1421         0
@Sumon_Late_by_class_L2C         0         0         0         0

@Sumon_Early_by_cycle_L2C        13         6         3         1         0         4        18        35        37        33       209      4433
@Sumon_Late_by_cycle_L2C         1         1         0         3         1         0
@Sumon_Early_stream_L2C         0         0         0         0         0         0         0         0         0        17       126      2754
@Sumon_Early_CS_L2C         0         0         0         0         0         0         0         0         0         0         0       258
@Sumon_Early_CPLX_L2C         0         0         0         0         0         0         0         0         0         4        77      1340
@Sumon_Late_stream_L2C         0         0         0         0         0         0
@Sumon_Late_CS_L2C         0         0         0         0         0         0
@Sumon_Late_CPLX_L2C         0         0         0         0         0         0
DRAM PAGES: 1048576
Allocated PAGES: 7115
