Initialize SIGNATURE TABLE
ST_SET: 1
ST_WAY: 256
ST_TAG_BIT: 16
ST_TAG_MASK: ffff

Initialize PATTERN TABLE
PT_SET: 512
PT_WAY: 4
SIG_DELTA_BIT: 7
C_SIG_BIT: 4
C_DELTA_BIT: 4

Initialize PREFETCH FILTER
FILTER_SET: 1024

*** ChampSim Multicore Out-of-Order Simulator ***

Warmup Instructions: 10000000
Simulation Instructions: 50000000
Number of CPUs: 1
LLC sets: 2048
LLC ways: 16
Off-chip DRAM Size: 4096 MB Channels: 1 Width: 64-bit Data Rate: 6400 MT/s
CPU 0 runs traces/SPEC2017/654.roms_s-1390B.champsimtrace.xz
.xz
CPU 0 Bimodal branch predictor
BTB has LRU replacement policy
ITLB has LRU replacement policy
DTLB has LRU replacement policy
STLB has LRU replacement policy
L1I has LRU replacement policy
L1D has LRU replacement policy
ST_WAYS: 256
PT_SETS: 512
L2C has LRU replacement policy
LLC has LRU replacement policy
Heartbeat CPU 0 instructions: 10000001 cycles: 3758726 heartbeat IPC: 2.66048 cumulative IPC: 2.66048 (Simulation time: 0 hr 11 min 21 sec) 

Warmup complete CPU 0 instructions: 10000001 cycles: 3758726 (Simulation time: 0 hr 11 min 21 sec) 

Heartbeat CPU 0 instructions: 20000000 cycles: 18354838 heartbeat IPC: 0.685114 cumulative IPC: 0.685114 (Simulation time: 0 hr 23 min 26 sec) 
Heartbeat CPU 0 instructions: 30000003 cycles: 33710774 heartbeat IPC: 0.651214 cumulative IPC: 0.667734 (Simulation time: 0 hr 34 min 54 sec) 
Heartbeat CPU 0 instructions: 40000002 cycles: 46694605 heartbeat IPC: 0.770189 cumulative IPC: 0.698716 (Simulation time: 0 hr 50 min 16 sec) 
Heartbeat CPU 0 instructions: 50000000 cycles: 59899586 heartbeat IPC: 0.75729 cumulative IPC: 0.712494 (Simulation time: 1 hr 4 min 22 sec) 
Heartbeat CPU 0 instructions: 60000001 cycles: 71887560 heartbeat IPC: 0.834169 cumulative IPC: 0.733904 (Simulation time: 1 hr 16 min 3 sec) 
Finished CPU 0 instructions: 50000000 cycles: 68128834 cumulative IPC: 0.733904 (Simulation time: 1 hr 16 min 3 sec) 

ChampSim completed all CPUs

Region of Interest Statistics

CPU 0 cumulative IPC: 0.733904 instructions: 50000000 cycles: 68128834
ITLB TOTAL     ACCESS:    7607407  HIT:    7607384  MISS:         23  HIT %:    99.9997  MISS %: 0.000302337   MPKI: 0.00046
ITLB LOAD TRANSLATION ACCESS:    7607407  HIT:    7607384  MISS:         23  HIT %:    99.9997  MISS %: 0.000302337   MPKI: 0.00046
ITLB PREFETCH  REQUESTED:          0  ISSUED:          0  USEFUL:          0  USELESS:          0
ITLB USEFUL LOAD PREFETCHES:          0 PREFETCH ISSUED TO LOWER LEVEL:          0  ACCURACY: -nan
ITLB TIMELY PREFETCHES:          0 LATE PREFETCHES: 0 DROPPED PREFETCHES: 0
ITLB PREFETCHES SAME FILL-ORIGIN LEVEL: 0 DIFFERENT FILL-ORIGIN LEVEL: 0
ITLB AVERAGE MISS LATENCY: 304.13 cycles
ITLB RQ	ACCESS:    8595979	FORWARD:          0	MERGED:     988566	TO_CACHE:    7607413

DTLB TOTAL     ACCESS:   14192566  HIT:   14137846  MISS:      54720  HIT %:    99.6144  MISS %:   0.385554   MPKI: 1.0944
DTLB LOAD TRANSLATION ACCESS:   14192566  HIT:   14137846  MISS:      54720  HIT %:    99.6144  MISS %:   0.385554   MPKI: 1.0944
DTLB PREFETCH  REQUESTED:          0  ISSUED:          0  USEFUL:          0  USELESS:          0
DTLB USEFUL LOAD PREFETCHES:          0 PREFETCH ISSUED TO LOWER LEVEL:          0  ACCURACY: -nan
DTLB TIMELY PREFETCHES:          0 LATE PREFETCHES: 0 DROPPED PREFETCHES: 0
DTLB PREFETCHES SAME FILL-ORIGIN LEVEL: 0 DIFFERENT FILL-ORIGIN LEVEL: 0
DTLB AVERAGE MISS LATENCY: 170.751 cycles
DTLB RQ	ACCESS:   15401010	FORWARD:          0	MERGED:    1156097	TO_CACHE:   14244913

STLB TOTAL     ACCESS:      54743  HIT:      15771  MISS:      38972  HIT %:    28.8092  MISS %:    71.1908   MPKI: 0.77944
STLB LOAD TRANSLATION ACCESS:      54743  HIT:      15771  MISS:      38972  HIT %:    28.8092  MISS %:    71.1908   MPKI: 0.77944
STLB PREFETCH  REQUESTED:          0  ISSUED:          0  USEFUL:          0  USELESS:          0
STLB USEFUL LOAD PREFETCHES:          0 PREFETCH ISSUED TO LOWER LEVEL:          0  ACCURACY: -nan
STLB TIMELY PREFETCHES:          0 LATE PREFETCHES: 0 DROPPED PREFETCHES: 0
STLB PREFETCHES SAME FILL-ORIGIN LEVEL: 0 DIFFERENT FILL-ORIGIN LEVEL: 0
STLB AVERAGE MISS LATENCY: 225.69 cycles
STLB RQ	ACCESS:      54743	FORWARD:          0	MERGED:          0	TO_CACHE:      54743

STLB Hit, L1D data hit: 0
STLB Hit, L2C data hit: 0
STLB Hit, LLC data hit: 0
STLB Hit, LLC data miss: 0
STLB STLB hints to L2: 0
L1D TOTAL     ACCESS:   11800708  HIT:   10039946  MISS:    1760762  HIT %:    85.0792  MISS %:    14.9208   MPKI: 35.2152
L1D LOAD      ACCESS:    9694616  HIT:    8432277  MISS:    1262339  HIT %:     86.979  MISS %:     13.021   MPKI: 25.2468
L1D RFO       ACCESS:    2106092  HIT:    1607669  MISS:     498423  HIT %:    76.3342  MISS %:    23.6658   MPKI: 9.96846
L1D PREFETCH  REQUESTED:          0  ISSUED:          0  USEFUL:          0  USELESS:          0
L1D USEFUL LOAD PREFETCHES:          0 PREFETCH ISSUED TO LOWER LEVEL:          0  ACCURACY: -nan
L1D TIMELY PREFETCHES:          0 LATE PREFETCHES: 0 DROPPED PREFETCHES: 0
L1D PREFETCHES SAME FILL-ORIGIN LEVEL: 0 DIFFERENT FILL-ORIGIN LEVEL: 0
L1D AVERAGE MISS LATENCY: 149.096 cycles
L1D RQ	ACCESS:   17793135	FORWARD:          0	MERGED:    7585212	TO_CACHE:   10207780
L1D WQ	ACCESS:    5193248	FORWARD:        143	MERGED:         18	TO_CACHE:    5193230

L1D UNIQUE REGIONS ACCESSED: 0
L1D REGIONS CONFLICTS: 0
L1D Cross Page Prefetch Requests: 0
L1D Same Page Prefetch Requests: 0
L1D ROI Sum of L1D PQ occupancy: 0
L1D PREFETCHES PUSHED FROM L2C: 0
L1I TOTAL     ACCESS:    8595816  HIT:    8595397  MISS:        419  HIT %:    99.9951  MISS %: 0.00487446   MPKI: 0.00838
L1I LOAD      ACCESS:    8595816  HIT:    8595397  MISS:        419  HIT %:    99.9951  MISS %: 0.00487446   MPKI: 0.00838
L1I PREFETCH  REQUESTED:          0  ISSUED:          0  USEFUL:          0  USELESS:          0
L1I USEFUL LOAD PREFETCHES:          0 PREFETCH ISSUED TO LOWER LEVEL:          0  ACCURACY: -nan
L1I TIMELY PREFETCHES:          0 LATE PREFETCHES: 0 DROPPED PREFETCHES: 0
L1I PREFETCHES SAME FILL-ORIGIN LEVEL: 0 DIFFERENT FILL-ORIGIN LEVEL: 0
L1I AVERAGE MISS LATENCY: 234.339 cycles
L1I RQ	ACCESS:   13094563	FORWARD:          0	MERGED:    4498584	TO_CACHE:    8595979

BTB TOTAL     ACCESS:    3086896  HIT:    3086656  MISS:        240  HIT %:    99.9922  MISS %:  0.0077748   MPKI: 0.0048
BTB BRANCH_DIRECT_JUMP	ACCESS:        167  HIT:        144  MISS:         23
BTB BRANCH_INDIRECT	ACCESS:          0  HIT:          0  MISS:          0
BTB BRANCH_CONDITIONAL	ACCESS:    3086455  HIT:    3086363  MISS:         92
BTB BRANCH_DIRECT_CALL	ACCESS:        137  HIT:         76  MISS:         61
BTB BRANCH_INDIRECT_CALL	ACCESS:          0  HIT:          0  MISS:          0
BTB BRANCH_RETURN	ACCESS:        137  HIT:         73  MISS:         64
BTB BRANCH_OTHER ACCESS:          0  HIT:          0  MISS:          0

L2C TOTAL     ACCESS:    3878122  HIT:    2237662  MISS:    1640460  HIT %:    57.6996  MISS %:    42.3004   MPKI: 32.8092
L2C LOAD      ACCESS:    1262757  HIT:     868887  MISS:     393870  HIT %:    68.8087  MISS %:    31.1913   MPKI: 7.8774
L2C DATA LOAD MPKI: 7.86902
L2C INSTRUCTION LOAD MPKI: 0.00838
L2C RFO       ACCESS:     498423  HIT:          4  MISS:     498419  HIT %: 0.000802531  MISS %:    99.9992   MPKI: 9.96838
L2C PREFETCH  ACCESS:    1410592  HIT:     671049  MISS:     739543  HIT %:    47.5722  MISS %:    52.4278   MPKI: 14.7909
L2C DATA PREFETCH MPKI: 14.7909
L2C INSTRUCTION PREFETCH MPKI: 0
L2C WRITEBACK ACCESS:     667283  HIT:     667268  MISS:         15  HIT %:    99.9978  MISS %: 0.00224792   MPKI: 0.0003
L2C LOAD TRANSLATION ACCESS:      39067  HIT:      30454  MISS:       8613  HIT %:    77.9533  MISS %:    22.0467   MPKI: 0.17226
L2C PREFETCH  REQUESTED:    9361895  ISSUED:    8787515  USEFUL:     731413  USELESS:       8137
L2C USEFUL LOAD PREFETCHES:     731413 PREFETCH ISSUED TO LOWER LEVEL:    7925295  ACCURACY: 9.22884
L2C TIMELY PREFETCHES:     731413 LATE PREFETCHES: 33298 DROPPED PREFETCHES: 0
L2C PREFETCHES SAME FILL-ORIGIN LEVEL: 772841 DIFFERENT FILL-ORIGIN LEVEL: 7152454
L2C AVERAGE MISS LATENCY: 161.791 cycles
L2C RQ	ACCESS:    1800249	FORWARD:          0	MERGED:          0	TO_CACHE:    1800248
L2C WQ	ACCESS:     667283	FORWARD:          1	MERGED:          0	TO_CACHE:     667283
L2C PQ	ACCESS:    8787515	FORWARD:          0	MERGED:     169523	TO_CACHE:    8617992

L2C Instructions Evicting Data 419
L2C Translations Evicting Data 8562
L2C Data Evicting Data 1622419
L2C Instructions Evicting Instructions 0
L2C Translations Evicting Instructions 4
L2C Data Evicting Instructions 415
L2C Instructions Evicting Translations 0
L2C Translations Evicting Translations 47
L2C Data Evicting Translations 8579
L2C Dense regions hint from L2: 0
PSCL5 TOTAL     ACCESS:      38972  HIT:      38972  MISS:          0  HIT %:        100  MISS %:          0   MPKI: 0
PSCL5 LOAD TRANSLATION ACCESS:      38972  HIT:      38972  MISS:          0  HIT %:        100  MISS %:          0   MPKI: 0
PSCL5 PREFETCH  REQUESTED:          0  ISSUED:          0  USEFUL:          0  USELESS:          0
PSCL5 USEFUL LOAD PREFETCHES:          0 PREFETCH ISSUED TO LOWER LEVEL:          0  ACCURACY: -nan
PSCL5 TIMELY PREFETCHES:          0 LATE PREFETCHES: 0 DROPPED PREFETCHES: 0
PSCL5 PREFETCHES SAME FILL-ORIGIN LEVEL: 0 DIFFERENT FILL-ORIGIN LEVEL: 0

PSCL4 TOTAL     ACCESS:      38972  HIT:      38972  MISS:          0  HIT %:        100  MISS %:          0   MPKI: 0
PSCL4 LOAD TRANSLATION ACCESS:      38972  HIT:      38972  MISS:          0  HIT %:        100  MISS %:          0   MPKI: 0
PSCL4 PREFETCH  REQUESTED:          0  ISSUED:          0  USEFUL:          0  USELESS:          0
PSCL4 USEFUL LOAD PREFETCHES:          0 PREFETCH ISSUED TO LOWER LEVEL:          0  ACCURACY: -nan
PSCL4 TIMELY PREFETCHES:          0 LATE PREFETCHES: 0 DROPPED PREFETCHES: 0
PSCL4 PREFETCHES SAME FILL-ORIGIN LEVEL: 0 DIFFERENT FILL-ORIGIN LEVEL: 0

PSCL3 TOTAL     ACCESS:      38972  HIT:      38971  MISS:          1  HIT %:    99.9974  MISS %: 0.00256594   MPKI: 2e-05
PSCL3 LOAD TRANSLATION ACCESS:      38972  HIT:      38971  MISS:          1  HIT %:    99.9974  MISS %: 0.00256594   MPKI: 2e-05
PSCL3 PREFETCH  REQUESTED:          0  ISSUED:          0  USEFUL:          0  USELESS:          0
PSCL3 USEFUL LOAD PREFETCHES:          0 PREFETCH ISSUED TO LOWER LEVEL:          0  ACCURACY: -nan
PSCL3 TIMELY PREFETCHES:          0 LATE PREFETCHES: 0 DROPPED PREFETCHES: 0
PSCL3 PREFETCHES SAME FILL-ORIGIN LEVEL: 0 DIFFERENT FILL-ORIGIN LEVEL: 0

PSCL2 TOTAL     ACCESS:      38972  HIT:      38781  MISS:        191  HIT %:    99.5099  MISS %:   0.490095   MPKI: 0.00382
PSCL2 LOAD TRANSLATION ACCESS:      38972  HIT:      38781  MISS:        191  HIT %:    99.5099  MISS %:   0.490095   MPKI: 0.00382
PSCL2 PREFETCH  REQUESTED:          0  ISSUED:          0  USEFUL:          0  USELESS:          0
PSCL2 USEFUL LOAD PREFETCHES:          0 PREFETCH ISSUED TO LOWER LEVEL:          0  ACCURACY: -nan
PSCL2 TIMELY PREFETCHES:          0 LATE PREFETCHES: 0 DROPPED PREFETCHES: 0
PSCL2 PREFETCHES SAME FILL-ORIGIN LEVEL: 0 DIFFERENT FILL-ORIGIN LEVEL: 0

LLC TOTAL     ACCESS:    8340647  HIT:    6623885  MISS:    1716762  HIT %:    79.4169  MISS %:    20.5831   MPKI: 34.3352
LLC LOAD      ACCESS:     360572  HIT:     311169  MISS:      49403  HIT %:    86.2987  MISS %:    13.7013   MPKI: 0.98806
LLC RFO       ACCESS:     498419  HIT:         24  MISS:     498395  HIT %: 0.00481523  MISS %:    99.9952   MPKI: 9.9679
LLC PREFETCH  ACCESS:    6807653  HIT:    5647280  MISS:    1160373  HIT %:    82.9549  MISS %:    17.0451   MPKI: 23.2075
LLC WRITEBACK ACCESS:     665390  HIT:     665375  MISS:         15  HIT %:    99.9977  MISS %: 0.00225432   MPKI: 0.0003
LLC LOAD TRANSLATION ACCESS:       8613  HIT:         37  MISS:       8576  HIT %:   0.429583  MISS %:    99.5704   MPKI: 0.17152
LLC PREFETCH  REQUESTED:          0  ISSUED:          0  USEFUL:     310983  USELESS:     849192
LLC USEFUL LOAD PREFETCHES:     310983 PREFETCH ISSUED TO LOWER LEVEL:    1165962  ACCURACY: 26.6718
LLC TIMELY PREFETCHES:     310983 LATE PREFETCHES: 5589 DROPPED PREFETCHES: 0
LLC PREFETCHES SAME FILL-ORIGIN LEVEL: 1148482 DIFFERENT FILL-ORIGIN LEVEL: 0
LLC AVERAGE MISS LATENCY: 347.969 cycles
LLC RQ	ACCESS:     867604	FORWARD:          0	MERGED:          0	TO_CACHE:     867604
LLC WQ	ACCESS:     665390	FORWARD:          0	MERGED:          0	TO_CACHE:     665390
LLC PQ	ACCESS:    7925295	FORWARD:          0	MERGED:      34156	TO_CACHE:    7891139

LLC Dense regions hint to LLC: 0

RAW hits: 1866
Loads Generated: 17795006
Loads sent to L1D: 17793135
Stores Generated: 5193403
Stores sent to L1D: 5193404
Major fault: 0 Minor fault: 31870
Allocated PAGES: 31870
 All Calls: 1551616
 Critical Calls: 1551616
------------------
Depth Distribution
------------------
depth 0: 0
depth 1: 1448239
depth 2: 1405530
depth 3: 1358082
depth 4: 1316352
depth 5: 1260561
depth 6: 1201578
depth 7: 1027186
depth 8: 751691
depth 9: 442613
depth 10: 256719
depth 11: 139815
depth 12: 75977
depth 13: 37681
depth 14: 11717
depth 15: 11392
depth 16: 32
depth 17: 0
depth 18: 0
depth 19: 0
depth 20: 0
depth 21: 0
depth 22: 0
depth 23: 0
depth 24: 0
depth 25: 0
depth 26: 0
depth 27: 0
depth 28: 0
depth 29: 0
Total: 10745165
-----------------------------
-----------------------------
	Captured at Filter
-----------------------------
depth 0: 0
depth 1: 52119
depth 2: 49358
depth 3: 48330
depth 4: 47184
depth 5: 45185
depth 6: 42207
depth 7: 36491
depth 8: 26442
depth 9: 16739
depth 10: 6879
depth 11: 2258
depth 12: 589
depth 13: 205
depth 14: 49
depth 15: 52
depth 16: 0
depth 17: 0
depth 18: 0
depth 19: 0
depth 20: 0
depth 21: 0
depth 22: 0
depth 23: 0
depth 24: 0
depth 25: 0
depth 26: 0
depth 27: 0
depth 28: 0
depth 29: 0
-----------------------------
-----------------------------
		Lost at Page
-----------------------------
depth 0: 0
depth 1: 24391
depth 2: 47991
depth 3: 71690
depth 4: 95386
depth 5: 118172
depth 6: 140394
depth 7: 144977
depth 8: 127110
depth 9: 90564
depth 10: 58494
depth 11: 34179
depth 12: 18899
depth 13: 9757
depth 14: 3320
depth 15: 3551
depth 16: 2
depth 17: 0
depth 18: 0
depth 19: 0
depth 20: 0
depth 21: 0
depth 22: 0
depth 23: 0
depth 24: 0
depth 25: 0
depth 26: 0
depth 27: 0
depth 28: 0
depth 29: 0
-----------------------------
-----------------------------
	Lost due to PQ Size
-----------------------------
792065
-----------------------------
ST read accesses: 1233053
ST write accesses: 29285
PT read accesses: 58349159
PT write accesses: 1832468
FILTER read accesses: 12520400
FILTER write accesses: 3329247
GHR read accesses: 4021758
GHR write accesses: 793816
GHR counter read accesses: 49197736
GHR counter write accesses: 2978193
ST tag read accesses: 500987794
ST tag write accesses: 14121371

DRAM Statistics
 CHANNEL 0
 RQ ROW_BUFFER_HIT:     465274  ROW_BUFFER_MISS:    1251473
 DBUS_CONGESTED:        394
 WQ ROW_BUFFER_HIT:     125536  ROW_BUFFER_MISS:     538481  FULL:          0

 AVG_CONGESTED_CYCLE: 5
 All warmup complete: 2
Channel 0 Bank busy for read cycles: 0
Channel 0 Bank busy for write cycles: 0
Channel 0
Rank 0
0banks busy for read cycles: 2642522
0banks busy for write cycles: 3729
1banks busy for read cycles: 6760165
1banks busy for write cycles: 563782
2banks busy for read cycles: 6284658
2banks busy for write cycles: 239928
3banks busy for read cycles: 5621934
3banks busy for write cycles: 193901
4banks busy for read cycles: 5413311
4banks busy for write cycles: 185133
5banks busy for read cycles: 5033401
5banks busy for write cycles: 192885
6banks busy for read cycles: 4033214
6banks busy for write cycles: 221472
7banks busy for read cycles: 4376115
7banks busy for write cycles: 973000
8banks busy for read cycles: 10806722
8banks busy for write cycles: 14582963

CPU 0 Branch Prediction Accuracy: 99.7911% MPKI: 0.12922 Average ROB Occupancy at Mispredict: 95.0755
Branch types
NOT_BRANCH: 46907122 93.8142%
BRANCH_DIRECT_JUMP: 167 0.000334%
BRANCH_INDIRECT: 0 0%
BRANCH_CONDITIONAL: 3092362 6.18472%
BRANCH_DIRECT_CALL: 137 0.000274%
BRANCH_INDIRECT_CALL: 0 0%
BRANCH_RETURN: 137 0.000274%
BRANCH_OTHER: 0 0%

@sumon_overall_L1D         0         0         0         0         0         0
@Sumon_Early_by_class_L1D         0         0         0         0
@Sumon_Late_by_class_L1D         0         0         0         0

@Sumon_Early_by_cycle_L1D         0         0         0         0         0         0         0         0         0         0         0         0
@Sumon_Late_by_cycle_L1D         0         0         0         0         0         0         0         0         0         0         0         0
@Sumon_Early_stream_L1D         0         0         0         0         0         0         0         0         0         0         0         0
@Sumon_Early_CS_L1D         0         0         0         0         0         0         0         0         0         0         0         0
@Sumon_Early_CPLX_L1D         0         0         0         0         0         0         0         0         0         0         0         0
@Sumon_Late_stream_L1D         0         0         0         0         0         0         0         0         0         0         0         0
@Sumon_Late_CS_L1D         0         0         0         0         0         0         0         0         0         0         0         0
@Sumon_Late_CPLX_L1D         0         0         0         0         0         0         0         0         0         0         0         0
@sumon_overall_L2C    731413     33298      8137    739543   8787515   9361895
@Sumon_Early_by_class_L2C         0         0         0         0
@Sumon_Late_by_class_L2C         0         0         0         0

@Sumon_Early_by_cycle_L2C    259520    203586    188880     57946      9126     10972       590       370         0       420         1         2
@Sumon_Late_by_cycle_L2C     25546      5404      1679       475       127        67         0         0         0         0         0         0
@Sumon_Early_stream_L2C         0         0         0         0         0         0         0         0         0         0         0         0
@Sumon_Early_CS_L2C         0         0         0         0         0         0         0         0         0         0         0         0
@Sumon_Early_CPLX_L2C         0         0         0         0         0         0         0         0         0         0         0         0
@Sumon_Late_stream_L2C         0         0         0         0         0         0         0         0         0         0         0         0
@Sumon_Late_CS_L2C         0         0         0         0         0         0         0         0         0         0         0         0
@Sumon_Late_CPLX_L2C         0         0         0         0         0         0         0         0         0         0         0         0
DRAM PAGES: 1048576
Allocated PAGES: 31870
