
*** ChampSim Multicore Out-of-Order Simulator ***

Warmup Instructions: 10000000
Simulation Instructions: 50000000
Number of CPUs: 1
LLC sets: 2048
LLC ways: 16
Off-chip DRAM Size: 4096 MB Channels: 1 Width: 64-bit Data Rate: 6400 MT/s
CPU 0 runs traces/SPEC2017/602.gcc_s-2226B.champsimtrace.xz
.xz
CPU 0 Bimodal branch predictor
BTB has LRU replacement policy
ITLB has LRU replacement policy
DTLB has LRU replacement policy
STLB has LRU replacement policy
L1I has LRU replacement policy
IP Table Entries: 256
L1D has LRU replacement policy
IP_Table L2 entries: 256
L2C has LRU replacement policy
Initialize Hawkeye state
Heartbeat CPU 0 instructions: 10000002 cycles: 3733912 heartbeat IPC: 2.67816 cumulative IPC: 2.67816 (Simulation time: 0 hr 13 min 3 sec) 

Warmup complete CPU 0 instructions: 10000002 cycles: 3733912 (Simulation time: 0 hr 13 min 3 sec) 

Heartbeat CPU 0 instructions: 20000000 cycles: 30220289 heartbeat IPC: 0.377553 cumulative IPC: 0.377553 (Simulation time: 0 hr 26 min 45 sec) 
Heartbeat CPU 0 instructions: 30000001 cycles: 56342210 heartbeat IPC: 0.38282 cumulative IPC: 0.380168 (Simulation time: 0 hr 40 min 28 sec) 
Heartbeat CPU 0 instructions: 40000002 cycles: 81944086 heartbeat IPC: 0.390596 cumulative IPC: 0.383582 (Simulation time: 0 hr 53 min 24 sec) 
Heartbeat CPU 0 instructions: 50000000 cycles: 106880440 heartbeat IPC: 0.401021 cumulative IPC: 0.387798 (Simulation time: 1 hr 2 min 6 sec) 
Heartbeat CPU 0 instructions: 60000001 cycles: 131953236 heartbeat IPC: 0.398839 cumulative IPC: 0.389957 (Simulation time: 1 hr 7 min 17 sec) 
Finished CPU 0 instructions: 50000000 cycles: 128219333 cumulative IPC: 0.389957 (Simulation time: 1 hr 7 min 17 sec) 

ChampSim completed all CPUs

Region of Interest Statistics

CPU 0 cumulative IPC: 0.389957 instructions: 50000000 cycles: 128219333
ITLB TOTAL     ACCESS:    8990988  HIT:    8990988  MISS:          0  HIT %:        100  MISS %:          0   MPKI: 0
ITLB LOAD TRANSLATION ACCESS:    8990988  HIT:    8990988  MISS:          0  HIT %:        100  MISS %:          0   MPKI: 0
ITLB PREFETCH  REQUESTED:          0  ISSUED:          0  USEFUL:          0  USELESS:          0
ITLB USEFUL LOAD PREFETCHES:          0 PREFETCH ISSUED TO LOWER LEVEL:          0  ACCURACY: -nan
ITLB TIMELY PREFETCHES:          0 LATE PREFETCHES: 0 DROPPED PREFETCHES: 0
ITLB PREFETCHES SAME FILL-ORIGIN LEVEL: 0 DIFFERENT FILL-ORIGIN LEVEL: 0
ITLB AVERAGE MISS LATENCY: -nan cycles
ITLB RQ	ACCESS:    9165749	FORWARD:          0	MERGED:     174761	TO_CACHE:    8990988

ITLB_Dead_block_count 0 0
ITLB_inaccurate_prefetch_count 0 0
Interactions: positive negative neutral
ITLB_interactions 0 0 0
ITLB_positive 0 0 0
ITLB_negative 0 0 0
ITLB_neutral 0 0 0 0 0 0
DTLB TOTAL     ACCESS:    7725952  HIT:    7656894  MISS:      69058  HIT %:    99.1062  MISS %:   0.893845   MPKI: 1.38116
DTLB LOAD TRANSLATION ACCESS:    7725952  HIT:    7656894  MISS:      69058  HIT %:    99.1062  MISS %:   0.893845   MPKI: 1.38116
DTLB PREFETCH  REQUESTED:          0  ISSUED:          0  USEFUL:          0  USELESS:          0
DTLB USEFUL LOAD PREFETCHES:          0 PREFETCH ISSUED TO LOWER LEVEL:          0  ACCURACY: -nan
DTLB TIMELY PREFETCHES:          0 LATE PREFETCHES: 0 DROPPED PREFETCHES: 0
DTLB PREFETCHES SAME FILL-ORIGIN LEVEL: 0 DIFFERENT FILL-ORIGIN LEVEL: 0
DTLB AVERAGE MISS LATENCY: 115.632 cycles
DTLB RQ	ACCESS:    9092193	FORWARD:          0	MERGED:    1365985	TO_CACHE:    7726208

DTLB_Dead_block_count 69054 4
DTLB_inaccurate_prefetch_count 0 0
Interactions: positive negative neutral
DTLB_interactions 0 0 0
DTLB_positive 0 0 0
DTLB_negative 0 0 0
DTLB_neutral 0 0 0 0 0 0
STLB TOTAL     ACCESS:    3060804  HIT:    2994378  MISS:      66426  HIT %:    97.8298  MISS %:    2.17021   MPKI: 1.32852
STLB LOAD TRANSLATION ACCESS:      69058  HIT:       2637  MISS:      66421  HIT %:    3.81853  MISS %:    96.1815   MPKI: 1.32842
STLB TRANSLATION FROM L1D PREFETCHER ACCESS:    2991746  HIT:    2991741  MISS:          5  HIT %:    99.9998  MISS %: 0.000167126   MPKI: 0.0001
STLB PREFETCH  REQUESTED:          0  ISSUED:          0  USEFUL:          5  USELESS:          0
STLB USEFUL LOAD PREFETCHES:          5 PREFETCH ISSUED TO LOWER LEVEL:          0  ACCURACY: inf
STLB TIMELY PREFETCHES:          5 LATE PREFETCHES: 0 DROPPED PREFETCHES: 0
STLB PREFETCHES SAME FILL-ORIGIN LEVEL: 0 DIFFERENT FILL-ORIGIN LEVEL: 0
STLB AVERAGE MISS LATENCY: 110.846 cycles
STLB RQ	ACCESS:    5045056	FORWARD:          0	MERGED:    1984252	TO_CACHE:    3060804

STLB_Dead_block_count 66422 4
STLB_inaccurate_prefetch_count 0 0
Interactions: positive negative neutral
STLB_interactions 0 0 0
STLB_positive 0 0 0
STLB_negative 0 0 0
STLB_neutral 0 0 0 0 0 0
STLB Hit, L1D data hit: 0
STLB Hit, L2C data hit: 0
STLB Hit, LLC data hit: 0
STLB Hit, LLC data miss: 0
STLB STLB hints to L2: 0
L1D TOTAL     ACCESS:   13986962  HIT:   10154892  MISS:    3832070  HIT %:    72.6026  MISS %:    27.3974   MPKI: 76.6414
L1D LOAD      ACCESS:    8360042  HIT:    8253805  MISS:     106237  HIT %:    98.7292  MISS %:    1.27077   MPKI: 2.12474
L1D RFO       ACCESS:     654026  HIT:     653878  MISS:        148  HIT %:    99.9774  MISS %:  0.0226291   MPKI: 0.00296
L1D PREFETCH  ACCESS:    4972894  HIT:    1247209  MISS:    3725685  HIT %:    25.0801  MISS %:    74.9199   MPKI: 74.5137
L1D PREFETCH  REQUESTED:    9952057  ISSUED:    9951996  USEFUL:    3384115  USELESS:     341545
L1D USEFUL LOAD PREFETCHES:    3384115 PREFETCH ISSUED TO LOWER LEVEL:    3726053  ACCURACY: 90.8231
L1D TIMELY PREFETCHES:    3384115 LATE PREFETCHES: 74824 DROPPED PREFETCHES: 0
L1D PREFETCHES SAME FILL-ORIGIN LEVEL: 3726053 DIFFERENT FILL-ORIGIN LEVEL: 0
L1D AVERAGE MISS LATENCY: 349.513 cycles
L1D RQ	ACCESS:   17944784	FORWARD:          0	MERGED:    9505060	TO_CACHE:    8438163
L1D WQ	ACCESS:     726008	FORWARD:       1561	MERGED:      71978	TO_CACHE:     654030
L1D PQ	ACCESS:    4975998	FORWARD:          0	MERGED:          0	TO_CACHE:    4975998

L1D_Dead_block_count 39 106198
L1D_inaccurate_prefetch_count 22470 3703235
Interactions: positive negative neutral
L1D_interactions 16673 22050 3698892
L1D_positive 2600 840 13233
L1D_negative 18369 6 3675
L1D_neutral 3375072 11081 29 3 397 312310
L1D UNIQUE REGIONS ACCESSED: 0
L1D REGIONS CONFLICTS: 0
L1D Cross Page Prefetch Requests: 0
L1D Same Page Prefetch Requests: 5947844
L1D ROI Sum of L1D PQ occupancy: 65562329
L1D PREFETCHES PUSHED FROM L2C: 0
L1I TOTAL     ACCESS:    9165748  HIT:    9165748  MISS:          0  HIT %:        100  MISS %:          0   MPKI: 0
L1I LOAD      ACCESS:    9165748  HIT:    9165748  MISS:          0  HIT %:        100  MISS %:          0   MPKI: 0
L1I PREFETCH  REQUESTED:          0  ISSUED:          0  USEFUL:          0  USELESS:          0
L1I USEFUL LOAD PREFETCHES:          0 PREFETCH ISSUED TO LOWER LEVEL:          0  ACCURACY: -nan
L1I TIMELY PREFETCHES:          0 LATE PREFETCHES: 0 DROPPED PREFETCHES: 0
L1I PREFETCHES SAME FILL-ORIGIN LEVEL: 0 DIFFERENT FILL-ORIGIN LEVEL: 0
L1I AVERAGE MISS LATENCY: -nan cycles
L1I RQ	ACCESS:   13767577	FORWARD:          0	MERGED:    4601828	TO_CACHE:    9165749

L1I_Dead_block_count 0 0
L1I_inaccurate_prefetch_count 0 0
Interactions: positive negative neutral
L1I_interactions 0 0 0
L1I_positive 0 0 0
L1I_negative 0 0 0
L1I_neutral 0 0 0 0 0 0
BTB TOTAL     ACCESS:   11916744  HIT:   11916646  MISS:         98  HIT %:    99.9992  MISS %: 0.000822372   MPKI: 0.00196
BTB BRANCH_DIRECT_JUMP	ACCESS:     169060  HIT:     169034  MISS:         26
BTB BRANCH_INDIRECT	ACCESS:          0  HIT:          0  MISS:          0
BTB BRANCH_CONDITIONAL	ACCESS:   11581020  HIT:   11580971  MISS:         49
BTB BRANCH_DIRECT_CALL	ACCESS:      83332  HIT:      83322  MISS:         10
BTB BRANCH_INDIRECT_CALL	ACCESS:          0  HIT:          0  MISS:          0
BTB BRANCH_RETURN	ACCESS:      83332  HIT:      83319  MISS:         13
BTB BRANCH_OTHER ACCESS:          0  HIT:          0  MISS:          0

L2C TOTAL     ACCESS:    6794084  HIT:    3054001  MISS:    3740083  HIT %:    44.9509  MISS %:    55.0491   MPKI: 74.8017
L2C LOAD      ACCESS:     106214  HIT:      28277  MISS:      77937  HIT %:    26.6227  MISS %:    73.3773   MPKI: 1.55874
L2C DATA LOAD MPKI: 1.55874
L2C INSTRUCTION LOAD MPKI: 0
L2C RFO       ACCESS:        128  HIT:        102  MISS:         26  HIT %:    79.6875  MISS %:    20.3125   MPKI: 0.00052
L2C PREFETCH  ACCESS:    6613997  HIT:    2967800  MISS:    3646197  HIT %:    44.8715  MISS %:    55.1285   MPKI: 72.9239
L2C DATA PREFETCH MPKI: 72.9239
L2C INSTRUCTION PREFETCH MPKI: 0
L2C WRITEBACK ACCESS:       6166  HIT:       5990  MISS:        176  HIT %:    97.1456  MISS %:    2.85436   MPKI: 0.00352
L2C LOAD TRANSLATION ACCESS:      67571  HIT:      51829  MISS:      15742  HIT %:     76.703  MISS %:     23.297   MPKI: 0.31484
L2C TRANSLATION FROM L1D PREFETCHER ACCESS:          8  HIT:          3  MISS:          5  HIT %:       37.5  MISS %:       62.5   MPKI: 0.0001
L2C PREFETCH  REQUESTED:    7255952  ISSUED:    7255897  USEFUL:      12431  USELESS:    3633750
L2C USEFUL LOAD PREFETCHES:      12431 PREFETCH ISSUED TO LOWER LEVEL:    3646469  ACCURACY: 0.340905
L2C TIMELY PREFETCHES:      12431 LATE PREFETCHES: 272 DROPPED PREFETCHES: 0
L2C PREFETCHES SAME FILL-ORIGIN LEVEL: 2860385 DIFFERENT FILL-ORIGIN LEVEL: 0
L2C AVERAGE MISS LATENCY: 108.144 cycles
L2C RQ	ACCESS:     173944	FORWARD:          0	MERGED:          0	TO_CACHE:     173921
L2C WQ	ACCESS:       6166	FORWARD:         23	MERGED:          0	TO_CACHE:       6166
L2C PQ	ACCESS:   10981602	FORWARD:          0	MERGED:    2058224	TO_CACHE:    8923378

L2C_Dead_block_count 65834 27604
L2C_inaccurate_prefetch_count 3616049 30420
Interactions: positive negative neutral
L2C_interactions 39344 41199 3604800
L2C_positive 324 10040 28980
L2C_negative 14161 231 26807
L2C_neutral 113 91 37170 28779 3538379 268
L2C Instructions Evicting Data 0
L2C Translations Evicting Data 15694
L2C Data Evicting Data 3708471
L2C Instructions Evicting Instructions 0
L2C Translations Evicting Instructions 0
L2C Data Evicting Instructions 0
L2C Instructions Evicting Translations 0
L2C Translations Evicting Translations 53
L2C Data Evicting Translations 15689
L2C Dense regions hint from L2: 0
PSCL5 TOTAL     ACCESS:      66426  HIT:      66426  MISS:          0  HIT %:        100  MISS %:          0   MPKI: 0
PSCL5 LOAD TRANSLATION ACCESS:      66421  HIT:      66421  MISS:          0  HIT %:        100  MISS %:          0   MPKI: 0
PSCL5 TRANSLATION FROM L1D PREFETCHER ACCESS:          5  HIT:          5  MISS:          0  HIT %:        100  MISS %:          0   MPKI: 0
PSCL5 PREFETCH  REQUESTED:          0  ISSUED:          0  USEFUL:          0  USELESS:          0
PSCL5 USEFUL LOAD PREFETCHES:          0 PREFETCH ISSUED TO LOWER LEVEL:          0  ACCURACY: -nan
PSCL5 TIMELY PREFETCHES:          0 LATE PREFETCHES: 0 DROPPED PREFETCHES: 0
PSCL5 PREFETCHES SAME FILL-ORIGIN LEVEL: 0 DIFFERENT FILL-ORIGIN LEVEL: 0

PSCL5_Dead_block_count 0 0
PSCL5_inaccurate_prefetch_count 0 0
Interactions: positive negative neutral
PSCL5_interactions 0 0 0
PSCL5_positive 0 0 0
PSCL5_negative 0 0 0
PSCL5_neutral 0 0 0 0 0 0
PSCL4 TOTAL     ACCESS:      66426  HIT:      66426  MISS:          0  HIT %:        100  MISS %:          0   MPKI: 0
PSCL4 LOAD TRANSLATION ACCESS:      66421  HIT:      66421  MISS:          0  HIT %:        100  MISS %:          0   MPKI: 0
PSCL4 TRANSLATION FROM L1D PREFETCHER ACCESS:          5  HIT:          5  MISS:          0  HIT %:        100  MISS %:          0   MPKI: 0
PSCL4 PREFETCH  REQUESTED:          0  ISSUED:          0  USEFUL:          0  USELESS:          0
PSCL4 USEFUL LOAD PREFETCHES:          0 PREFETCH ISSUED TO LOWER LEVEL:          0  ACCURACY: -nan
PSCL4 TIMELY PREFETCHES:          0 LATE PREFETCHES: 0 DROPPED PREFETCHES: 0
PSCL4 PREFETCHES SAME FILL-ORIGIN LEVEL: 0 DIFFERENT FILL-ORIGIN LEVEL: 0

PSCL4_Dead_block_count 0 0
PSCL4_inaccurate_prefetch_count 0 0
Interactions: positive negative neutral
PSCL4_interactions 0 0 0
PSCL4_positive 0 0 0
PSCL4_negative 0 0 0
PSCL4_neutral 0 0 0 0 0 0
PSCL3 TOTAL     ACCESS:      66424  HIT:      66417  MISS:          7  HIT %:    99.9895  MISS %:  0.0105384   MPKI: 0.00014
PSCL3 LOAD TRANSLATION ACCESS:      66420  HIT:      66413  MISS:          7  HIT %:    99.9895  MISS %:   0.010539   MPKI: 0.00014
PSCL3 TRANSLATION FROM L1D PREFETCHER ACCESS:          4  HIT:          4  MISS:          0  HIT %:        100  MISS %:          0   MPKI: 0
PSCL3 PREFETCH  REQUESTED:          0  ISSUED:          0  USEFUL:          0  USELESS:          0
PSCL3 USEFUL LOAD PREFETCHES:          0 PREFETCH ISSUED TO LOWER LEVEL:          0  ACCURACY: -nan
PSCL3 TIMELY PREFETCHES:          0 LATE PREFETCHES: 0 DROPPED PREFETCHES: 0
PSCL3 PREFETCHES SAME FILL-ORIGIN LEVEL: 0 DIFFERENT FILL-ORIGIN LEVEL: 0

PSCL3_Dead_block_count 0 0
PSCL3_inaccurate_prefetch_count 0 0
Interactions: positive negative neutral
PSCL3_interactions 0 0 0
PSCL3_positive 0 0 0
PSCL3_negative 0 0 0
PSCL3_neutral 0 0 0 0 0 0
PSCL2 TOTAL     ACCESS:      66426  HIT:      64852  MISS:       1574  HIT %:    97.6304  MISS %:    2.36955   MPKI: 0.03148
PSCL2 LOAD TRANSLATION ACCESS:      66423  HIT:      64849  MISS:       1574  HIT %:    97.6303  MISS %:    2.36966   MPKI: 0.03148
PSCL2 TRANSLATION FROM L1D PREFETCHER ACCESS:          3  HIT:          3  MISS:          0  HIT %:        100  MISS %:          0   MPKI: 0
PSCL2 PREFETCH  REQUESTED:          0  ISSUED:          0  USEFUL:          0  USELESS:          0
PSCL2 USEFUL LOAD PREFETCHES:          0 PREFETCH ISSUED TO LOWER LEVEL:          0  ACCURACY: -nan
PSCL2 TIMELY PREFETCHES:          0 LATE PREFETCHES: 0 DROPPED PREFETCHES: 0
PSCL2 PREFETCHES SAME FILL-ORIGIN LEVEL: 0 DIFFERENT FILL-ORIGIN LEVEL: 0

PSCL2_Dead_block_count 0 0
PSCL2_inaccurate_prefetch_count 0 0
Interactions: positive negative neutral
PSCL2_interactions 0 0 0
PSCL2_positive 0 0 0
PSCL2_negative 0 0 0
PSCL2_neutral 0 0 0 0 0 0
LLC TOTAL     ACCESS:    3745762  HIT:      50288  MISS:    3695474  HIT %:    1.34253  MISS %:    98.6575   MPKI: 73.9095
LLC LOAD      ACCESS:      77665  HIT:       5014  MISS:      72651  HIT %:    6.45593  MISS %:    93.5441   MPKI: 1.45302
LLC RFO       ACCESS:         26  HIT:          8  MISS:         18  HIT %:    30.7692  MISS %:    69.2308   MPKI: 0.00036
LLC PREFETCH  ACCESS:    3646469  HIT:      43300  MISS:    3603169  HIT %:    1.18745  MISS %:    98.8125   MPKI: 72.0634
LLC WRITEBACK ACCESS:       5855  HIT:        525  MISS:       5330  HIT %:     8.9667  MISS %:    91.0333   MPKI: 0.1066
LLC LOAD TRANSLATION ACCESS:      15742  HIT:       1438  MISS:      14304  HIT %:     9.1348  MISS %:    90.8652   MPKI: 0.28608
LLC TRANSLATION FROM L1D PREFETCHER ACCESS:          5  HIT:          3  MISS:          2  HIT %:         60  MISS %:         40   MPKI: 4e-05
LLC PREFETCH  REQUESTED:          0  ISSUED:          0  USEFUL:        217  USELESS:    3605752
LLC USEFUL LOAD PREFETCHES:        217 PREFETCH ISSUED TO LOWER LEVEL:    3603169  ACCURACY: 0.00602248
LLC TIMELY PREFETCHES:        217 LATE PREFETCHES: 0 DROPPED PREFETCHES: 0
LLC PREFETCHES SAME FILL-ORIGIN LEVEL: 0 DIFFERENT FILL-ORIGIN LEVEL: 0
LLC AVERAGE MISS LATENCY: 78.9398 cycles
LLC RQ	ACCESS:      93438	FORWARD:          0	MERGED:          0	TO_CACHE:      93438
LLC WQ	ACCESS:       5855	FORWARD:          0	MERGED:          0	TO_CACHE:       5855
LLC PQ	ACCESS:    3646469	FORWARD:          0	MERGED:          0	TO_CACHE:    3646469

LLC_Dead_block_count 80525 6450
LLC_inaccurate_prefetch_count 3602278 891
Interactions: positive negative neutral
LLC_interactions 1074 6365 3628350
LLC_positive 0 1018 56
LLC_negative 6061 4 300
LLC_neutral 0 0 29200 31596 3567554 0
LLC Dense regions hint to LLC: 0

RAW hits: 4052
Loads Generated: 17948838
Loads sent to L1D: 17944784
Stores Generated: 726008
Stores sent to L1D: 726008
Major fault: 0 Minor fault: 48862
Allocated PAGES: 48862

stream: 
stream:times selected: 7692411
stream:pref_filled: 4105645
stream:pref_useful: 3798803
stream:pref_late: 45854
stream:misses: 8075
stream:misses_by_poll: 0

CS: 
CS:times selected: 5072708
CS:pref_filled: 32959
CS:pref_useful: 29574
CS:pref_late: 4272
CS:misses: 162689
CS:misses_by_poll: 485

CPLX: 
CPLX:times selected: 2617000
CPLX:pref_filled: 325638
CPLX:pref_useful: 225112
CPLX:pref_late: 1783
CPLX:misses: 52150
CPLX:misses_by_poll: 3111

NL_L1: 
NL:times selected: 1787
NL:pref_filled: 40
NL:pref_useful: 30
NL:pref_late: 6
NL:misses: 71
NL:misses_by_poll: 0

total selections: 15383906
total_filled: 3725685
total_useful: 3384115
total_late: 51915
total_polluted: 3596
total_misses_after_warmup: 184360
conflicts: 380
Degree Incremented Times: 81999
Degree Decremented Times: 0

L1 IP Table Write Accesses: 8418337
L1 IP Table Read Accesses: 8417957
L1 RST Write Accesses: 5754837
L1 RST Read Accesses: 11509674
L1 CSPT Write Accesses: 5754837
L1 CSPT Read Accesses: 12168735
L1 RR Filter Tag Write Accesses: 4976059
L1 RR Filter Tag Read Accesses: 1290142205
L1 IP Table Tag Write Accesses: 8438165
L1 IP Table Tag Read Accesses: 8438165
L1 RST Tag Write Accesses: 0
L1 RST Tag Read Accesses: 52230200
L1 RR Filter Write Accesses: 0
L1 RR Filter Read Accesses: 46883347
test: 1010172
L2 IP Table Read Accesses: 3237140
L2 IP Table Write Accesses: 3130942
L2 IP Table Tag Read Accesses: 1618578
L2 IP Table Tag Write Accesses: 1618578

DRAM Statistics
 CHANNEL 0
 RQ ROW_BUFFER_HIT:    3448168  ROW_BUFFER_MISS:     241976
 DBUS_CONGESTED:        465
 WQ ROW_BUFFER_HIT:        598  ROW_BUFFER_MISS:       5087  FULL:          0

 AVG_CONGESTED_CYCLE: 3
 All warmup complete: 2
Channel 0 Bank busy for read cycles: 0
Channel 0 Bank busy for write cycles: 0
Channel 0
Rank 0
0banks busy for read cycles: 63219461
0banks busy for write cycles: 2952
1banks busy for read cycles: 15648674
1banks busy for write cycles: 601624
2banks busy for read cycles: 13539352
2banks busy for write cycles: 220526
3banks busy for read cycles: 9840506
3banks busy for write cycles: 102869
4banks busy for read cycles: 5255516
4banks busy for write cycles: 43635
5banks busy for read cycles: 10205028
5banks busy for write cycles: 22224
6banks busy for read cycles: 3148805
6banks busy for write cycles: 7283
7banks busy for read cycles: 5334093
7banks busy for write cycles: 2376
8banks busy for read cycles: 1022981
8banks busy for write cycles: 1429

CPU 0 Branch Prediction Accuracy: 99.1283% MPKI: 3.10846 Average ROB Occupancy at Mispredict: 105.117
Branch types
NOT_BRANCH: 32169788 64.3396%
BRANCH_DIRECT_JUMP: 169060 0.33812%
BRANCH_INDIRECT: 0 0%
BRANCH_CONDITIONAL: 17494490 34.989%
BRANCH_DIRECT_CALL: 83332 0.166664%
BRANCH_INDIRECT_CALL: 0 0%
BRANCH_RETURN: 83332 0.166664%
BRANCH_OTHER: 0 0%

@sumon_overall_L1D   3384115     74824     74824    341545   3725685   9951996   9952057
@Sumon_Early_by_class_L1D   3145935     24423    213729         5
@Sumon_Late_by_class_L1D     34853      4022      1657         5

@Sumon_Early_by_cycle_L1D    812137   2097122    281018     33906     31694     41968     15125     58473      5572      4633      1632       835
@Sumon_Late_by_cycle_L1D      8046      8976      9393     11768      2354         0
@Sumon_Early_stream_L1D    768292   2010659    232655     10666     17573     28366     13709     53965      3846      3956      1531       717
@Sumon_Early_CS_L1D     20706      1041       604       111        94       368       886       565         7        27        12         2
@Sumon_Early_CPLX_L1D     23120     85417     47759     23129     14027     13234       530      3943      1718       647        89       116
@Sumon_Late_stream_L1D      7314      6775      7976     10695      2093         0
@Sumon_Late_CS_L1D       487      1592      1133       677       133         0
@Sumon_Late_CPLX_L1D       244       606       284       395       128         0
@sumon_overall_L2C     12431       272         0   3633750   3646202   7255897   7255952
@Sumon_Early_by_class_L2C     11904       102       425         0
@Sumon_Late_by_class_L2C       238        17         0         0

@Sumon_Early_by_cycle_L2C      1637      3090      1038       135        72       132         3         2       509      1545      1377      2891
@Sumon_Late_by_cycle_L2C        17        47        90        93        25         0
@Sumon_Early_stream_L2C      1568      3080      1037       135        71       131         3         2       499      1479      1310      2589
@Sumon_Early_CS_L2C        69        10         1         0         1         1         0         0         0         3         7        10
@Sumon_Early_CPLX_L2C         0         0         0         0         0         0         0         0        10        63        60       292
@Sumon_Late_stream_L2C         0        41        82        90        25         0
@Sumon_Late_CS_L2C         0         6         8         3         0         0
@Sumon_Late_CPLX_L2C         0         0         0         0         0         0
DRAM PAGES: 1048576
Allocated PAGES: 48862
