
*** ChampSim Multicore Out-of-Order Simulator ***

Warmup Instructions: 10000000
Simulation Instructions: 50000000
Number of CPUs: 1
LLC sets: 2048
LLC ways: 16
Off-chip DRAM Size: 4096 MB Channels: 1 Width: 64-bit Data Rate: 6400 MT/s
CPU 0 runs traces/SPEC2017/619.lbm_s-4268B.champsimtrace.xz
.xz
CPU 0 Bimodal branch predictor
BTB has LRU replacement policy
ITLB has LRU replacement policy
DTLB has LRU replacement policy
STLB has LRU replacement policy
L1I has LRU replacement policy
IP Table Entries: 256
L1D has LRU replacement policy
IP_Table L2 entries: 256
L2C has LRU replacement policy
Initialize Hawkeye state
Heartbeat CPU 0 instructions: 10000000 cycles: 2904692 heartbeat IPC: 3.44271 cumulative IPC: 3.44271 (Simulation time: 0 hr 9 min 37 sec) 

Warmup complete CPU 0 instructions: 10000004 cycles: 2904693 (Simulation time: 0 hr 9 min 37 sec) 

Heartbeat CPU 0 instructions: 20000002 cycles: 21781664 heartbeat IPC: 0.529746 cumulative IPC: 0.529746 (Simulation time: 0 hr 34 min 31 sec) 
Heartbeat CPU 0 instructions: 30000001 cycles: 40924488 heartbeat IPC: 0.522389 cumulative IPC: 0.526042 (Simulation time: 0 hr 57 min 46 sec) 
Heartbeat CPU 0 instructions: 40000002 cycles: 60266997 heartbeat IPC: 0.516996 cumulative IPC: 0.522992 (Simulation time: 1 hr 8 min 7 sec) 
Heartbeat CPU 0 instructions: 50000001 cycles: 79082402 heartbeat IPC: 0.531479 cumulative IPC: 0.525088 (Simulation time: 1 hr 13 min 4 sec) 
Heartbeat CPU 0 instructions: 60000001 cycles: 97957207 heartbeat IPC: 0.529807 cumulative IPC: 0.526025 (Simulation time: 1 hr 15 min 18 sec) 
Finished CPU 0 instructions: 50000001 cycles: 95052515 cumulative IPC: 0.526025 (Simulation time: 1 hr 15 min 18 sec) 

ChampSim completed all CPUs

Region of Interest Statistics

CPU 0 cumulative IPC: 0.526025 instructions: 50000001 cycles: 95052515
ITLB TOTAL     ACCESS:    6747972  HIT:    6747972  MISS:          0  HIT %:        100  MISS %:          0   MPKI: 0
ITLB LOAD TRANSLATION ACCESS:    6747972  HIT:    6747972  MISS:          0  HIT %:        100  MISS %:          0   MPKI: 0
ITLB PREFETCH  REQUESTED:          0  ISSUED:          0  USEFUL:          0  USELESS:          0
ITLB USEFUL LOAD PREFETCHES:          0 PREFETCH ISSUED TO LOWER LEVEL:          0  ACCURACY: -nan
ITLB TIMELY PREFETCHES:          0 LATE PREFETCHES: 0 DROPPED PREFETCHES: 0
ITLB PREFETCHES SAME FILL-ORIGIN LEVEL: 0 DIFFERENT FILL-ORIGIN LEVEL: 0
ITLB AVERAGE MISS LATENCY: -nan cycles
ITLB RQ	ACCESS:    8693545	FORWARD:          0	MERGED:    1945574	TO_CACHE:    6747971

ITLB_Dead_block_count 0 0
ITLB_inaccurate_prefetch_count 0 0
Interactions: positive negative neutral
ITLB_interactions 0 0 0
ITLB_positive 0 0 0
ITLB_negative 0 0 0
ITLB_neutral 0 0 0 0 0 0
DTLB TOTAL     ACCESS:    9088205  HIT:    9020169  MISS:      68036  HIT %:    99.2514  MISS %:   0.748619   MPKI: 1.36072
DTLB LOAD TRANSLATION ACCESS:    9088205  HIT:    9020169  MISS:      68036  HIT %:    99.2514  MISS %:   0.748619   MPKI: 1.36072
DTLB PREFETCH  REQUESTED:          0  ISSUED:          0  USEFUL:          0  USELESS:          0
DTLB USEFUL LOAD PREFETCHES:          0 PREFETCH ISSUED TO LOWER LEVEL:          0  ACCURACY: -nan
DTLB TIMELY PREFETCHES:          0 LATE PREFETCHES: 0 DROPPED PREFETCHES: 0
DTLB PREFETCHES SAME FILL-ORIGIN LEVEL: 0 DIFFERENT FILL-ORIGIN LEVEL: 0
DTLB AVERAGE MISS LATENCY: 109.114 cycles
DTLB RQ	ACCESS:   12597064	FORWARD:          0	MERGED:    3484694	TO_CACHE:    9112370

DTLB_Dead_block_count 68032 4
DTLB_inaccurate_prefetch_count 0 0
Interactions: positive negative neutral
DTLB_interactions 0 0 0
DTLB_positive 0 0 0
DTLB_negative 0 0 0
DTLB_neutral 0 0 0 0 0 0
STLB TOTAL     ACCESS:     426644  HIT:     389729  MISS:      36915  HIT %:    91.3476  MISS %:    8.65241   MPKI: 0.7383
STLB LOAD TRANSLATION ACCESS:      68036  HIT:      31121  MISS:      36915  HIT %:     45.742  MISS %:     54.258   MPKI: 0.7383
STLB TRANSLATION FROM L1D PREFETCHER ACCESS:     358608  HIT:     358608  MISS:          0  HIT %:        100  MISS %:          0   MPKI: 0
STLB PREFETCH  REQUESTED:          0  ISSUED:          0  USEFUL:          0  USELESS:          0
STLB USEFUL LOAD PREFETCHES:          0 PREFETCH ISSUED TO LOWER LEVEL:          0  ACCURACY: -nan
STLB TIMELY PREFETCHES:          0 LATE PREFETCHES: 0 DROPPED PREFETCHES: 0
STLB PREFETCHES SAME FILL-ORIGIN LEVEL: 0 DIFFERENT FILL-ORIGIN LEVEL: 0
STLB AVERAGE MISS LATENCY: 181.747 cycles
STLB RQ	ACCESS:     672152	FORWARD:          0	MERGED:     245508	TO_CACHE:     426644

STLB_Dead_block_count 36911 4
STLB_inaccurate_prefetch_count 0 0
Interactions: positive negative neutral
STLB_interactions 0 0 0
STLB_positive 0 0 0
STLB_negative 0 0 0
STLB_neutral 0 0 0 0 0 0
STLB Hit, L1D data hit: 0
STLB Hit, L2C data hit: 0
STLB Hit, LLC data hit: 0
STLB Hit, LLC data miss: 0
STLB STLB hints to L2: 0
L1D TOTAL     ACCESS:   12949585  HIT:    9052253  MISS:    3897332  HIT %:    69.9038  MISS %:    30.0962   MPKI: 77.9466
L1D LOAD      ACCESS:    4344792  HIT:    4172502  MISS:     172290  HIT %:    96.0346  MISS %:    3.96544   MPKI: 3.4458
L1D RFO       ACCESS:    8075820  HIT:    4769082  MISS:    3306738  HIT %:    59.0538  MISS %:    40.9462   MPKI: 66.1348
L1D PREFETCH  ACCESS:     528973  HIT:     110669  MISS:     418304  HIT %:    20.9215  MISS %:    79.0785   MPKI: 8.36608
L1D PREFETCH  REQUESTED:    1234991  ISSUED:    1208256  USEFUL:     394262  USELESS:      24038
L1D USEFUL LOAD PREFETCHES:     394262 PREFETCH ISSUED TO LOWER LEVEL:     418449  ACCURACY: 94.2198
L1D TIMELY PREFETCHES:     394262 LATE PREFETCHES: 72330 DROPPED PREFETCHES: 0
L1D PREFETCHES SAME FILL-ORIGIN LEVEL: 418449 DIFFERENT FILL-ORIGIN LEVEL: 0
L1D AVERAGE MISS LATENCY: 353.029 cycles
L1D RQ	ACCESS:   12533417	FORWARD:          0	MERGED:    5854200	TO_CACHE:    4448673
L1D WQ	ACCESS:    9189920	FORWARD:    2230544	MERGED:    1041529	TO_CACHE:    8148391
L1D PQ	ACCESS:     604140	FORWARD:          0	MERGED:         24	TO_CACHE:     604116

L1D_Dead_block_count 35242 137048
L1D_inaccurate_prefetch_count 107 418197
Interactions: positive negative neutral
L1D_interactions 7461 432 430375
L1D_positive 7457 4 0
L1D_negative 101 327 4
L1D_neutral 406670 19633 2 0 0 4070
L1D UNIQUE REGIONS ACCESSED: 0
L1D REGIONS CONFLICTS: 0
L1D Cross Page Prefetch Requests: 0
L1D Same Page Prefetch Requests: 731158
L1D ROI Sum of L1D PQ occupancy: 540350460
L1D PREFETCHES PUSHED FROM L2C: 0
L1I TOTAL     ACCESS:    8693545  HIT:    8693545  MISS:          0  HIT %:        100  MISS %:          0   MPKI: 0
L1I LOAD      ACCESS:    8693545  HIT:    8693545  MISS:          0  HIT %:        100  MISS %:          0   MPKI: 0
L1I PREFETCH  REQUESTED:          0  ISSUED:          0  USEFUL:          0  USELESS:          0
L1I USEFUL LOAD PREFETCHES:          0 PREFETCH ISSUED TO LOWER LEVEL:          0  ACCURACY: -nan
L1I TIMELY PREFETCHES:          0 LATE PREFETCHES: 0 DROPPED PREFETCHES: 0
L1I PREFETCHES SAME FILL-ORIGIN LEVEL: 0 DIFFERENT FILL-ORIGIN LEVEL: 0
L1I AVERAGE MISS LATENCY: -nan cycles
L1I RQ	ACCESS:   12525561	FORWARD:          0	MERGED:    3832016	TO_CACHE:    8693545

L1I_Dead_block_count 0 0
L1I_inaccurate_prefetch_count 0 0
Interactions: positive negative neutral
L1I_interactions 0 0 0
L1I_positive 0 0 0
L1I_negative 0 0 0
L1I_neutral 0 0 0 0 0 0
BTB TOTAL     ACCESS:     892948  HIT:     892942  MISS:          6  HIT %:    99.9993  MISS %: 0.000671932   MPKI: 0.00012
BTB BRANCH_DIRECT_JUMP	ACCESS:     143974  HIT:     143973  MISS:          1
BTB BRANCH_INDIRECT	ACCESS:          0  HIT:          0  MISS:          0
BTB BRANCH_CONDITIONAL	ACCESS:     748974  HIT:     748969  MISS:          5
BTB BRANCH_DIRECT_CALL	ACCESS:          0  HIT:          0  MISS:          0
BTB BRANCH_INDIRECT_CALL	ACCESS:          0  HIT:          0  MISS:          0
BTB BRANCH_RETURN	ACCESS:          0  HIT:          0  MISS:          0
BTB BRANCH_OTHER ACCESS:          0  HIT:          0  MISS:          0

L2C TOTAL     ACCESS:    7868147  HIT:    5472604  MISS:    2395543  HIT %:    69.5539  MISS %:    30.4461   MPKI: 47.9109
L2C LOAD      ACCESS:     172290  HIT:      91806  MISS:      80484  HIT %:    53.2857  MISS %:    46.7143   MPKI: 1.60968
L2C DATA LOAD MPKI: 1.60968
L2C INSTRUCTION LOAD MPKI: 0
L2C RFO       ACCESS:    3306735  HIT:    1506531  MISS:    1800204  HIT %:    45.5595  MISS %:    54.4405   MPKI: 36.0041
L2C PREFETCH  ACCESS:    1045462  HIT:     535418  MISS:     510044  HIT %:    51.2135  MISS %:    48.7865   MPKI: 10.2009
L2C DATA PREFETCH MPKI: 10.2009
L2C INSTRUCTION PREFETCH MPKI: 0
L2C WRITEBACK ACCESS:    3306743  HIT:    3306595  MISS:        148  HIT %:    99.9955  MISS %:  0.0044757   MPKI: 0.00296
L2C LOAD TRANSLATION ACCESS:      36917  HIT:      32254  MISS:       4663  HIT %:     87.369  MISS %:     12.631   MPKI: 0.09326
L2C PREFETCH  REQUESTED:     965285  ISSUED:     965250  USEFUL:      91739  USELESS:     418338
L2C USEFUL LOAD PREFETCHES:      91739 PREFETCH ISSUED TO LOWER LEVEL:     524318  ACCURACY: 17.4968
L2C TIMELY PREFETCHES:      91739 LATE PREFETCHES: 14274 DROPPED PREFETCHES: 0
L2C PREFETCHES SAME FILL-ORIGIN LEVEL: 347644 DIFFERENT FILL-ORIGIN LEVEL: 0
L2C AVERAGE MISS LATENCY: 625.75 cycles
L2C RQ	ACCESS:    3515961	FORWARD:          0	MERGED:          0	TO_CACHE:    3515958
L2C WQ	ACCESS:    3306743	FORWARD:          3	MERGED:          0	TO_CACHE:    3306743
L2C PQ	ACCESS:    1383554	FORWARD:          0	MERGED:     179728	TO_CACHE:    1203826

L2C_Dead_block_count 281016 1590077
L2C_inaccurate_prefetch_count 332481 191837
Interactions: positive negative neutral
L2C_interactions 209197 232894 338979
L2C_positive 21589 158665 28943
L2C_negative 187629 13308 31957
L2C_neutral 117616 69198 35930 29855 71167 15213
L2C Instructions Evicting Data 0
L2C Translations Evicting Data 4635
L2C Data Evicting Data 2386100
L2C Instructions Evicting Instructions 0
L2C Translations Evicting Instructions 0
L2C Data Evicting Instructions 0
L2C Instructions Evicting Translations 0
L2C Translations Evicting Translations 28
L2C Data Evicting Translations 4632
L2C Dense regions hint from L2: 0
PSCL5 TOTAL     ACCESS:      36915  HIT:      36915  MISS:          0  HIT %:        100  MISS %:          0   MPKI: 0
PSCL5 LOAD TRANSLATION ACCESS:      36915  HIT:      36915  MISS:          0  HIT %:        100  MISS %:          0   MPKI: 0
PSCL5 PREFETCH  REQUESTED:          0  ISSUED:          0  USEFUL:          0  USELESS:          0
PSCL5 USEFUL LOAD PREFETCHES:          0 PREFETCH ISSUED TO LOWER LEVEL:          0  ACCURACY: -nan
PSCL5 TIMELY PREFETCHES:          0 LATE PREFETCHES: 0 DROPPED PREFETCHES: 0
PSCL5 PREFETCHES SAME FILL-ORIGIN LEVEL: 0 DIFFERENT FILL-ORIGIN LEVEL: 0

PSCL5_Dead_block_count 0 0
PSCL5_inaccurate_prefetch_count 0 0
Interactions: positive negative neutral
PSCL5_interactions 0 0 0
PSCL5_positive 0 0 0
PSCL5_negative 0 0 0
PSCL5_neutral 0 0 0 0 0 0
PSCL4 TOTAL     ACCESS:      36915  HIT:      36915  MISS:          0  HIT %:        100  MISS %:          0   MPKI: 0
PSCL4 LOAD TRANSLATION ACCESS:      36915  HIT:      36915  MISS:          0  HIT %:        100  MISS %:          0   MPKI: 0
PSCL4 PREFETCH  REQUESTED:          0  ISSUED:          0  USEFUL:          0  USELESS:          0
PSCL4 USEFUL LOAD PREFETCHES:          0 PREFETCH ISSUED TO LOWER LEVEL:          0  ACCURACY: -nan
PSCL4 TIMELY PREFETCHES:          0 LATE PREFETCHES: 0 DROPPED PREFETCHES: 0
PSCL4 PREFETCHES SAME FILL-ORIGIN LEVEL: 0 DIFFERENT FILL-ORIGIN LEVEL: 0

PSCL4_Dead_block_count 0 0
PSCL4_inaccurate_prefetch_count 0 0
Interactions: positive negative neutral
PSCL4_interactions 0 0 0
PSCL4_positive 0 0 0
PSCL4_negative 0 0 0
PSCL4_neutral 0 0 0 0 0 0
PSCL3 TOTAL     ACCESS:      36915  HIT:      36915  MISS:          0  HIT %:        100  MISS %:          0   MPKI: 0
PSCL3 LOAD TRANSLATION ACCESS:      36915  HIT:      36915  MISS:          0  HIT %:        100  MISS %:          0   MPKI: 0
PSCL3 PREFETCH  REQUESTED:          0  ISSUED:          0  USEFUL:          0  USELESS:          0
PSCL3 USEFUL LOAD PREFETCHES:          0 PREFETCH ISSUED TO LOWER LEVEL:          0  ACCURACY: -nan
PSCL3 TIMELY PREFETCHES:          0 LATE PREFETCHES: 0 DROPPED PREFETCHES: 0
PSCL3 PREFETCHES SAME FILL-ORIGIN LEVEL: 0 DIFFERENT FILL-ORIGIN LEVEL: 0

PSCL3_Dead_block_count 0 0
PSCL3_inaccurate_prefetch_count 0 0
Interactions: positive negative neutral
PSCL3_interactions 0 0 0
PSCL3_positive 0 0 0
PSCL3_negative 0 0 0
PSCL3_neutral 0 0 0 0 0 0
PSCL2 TOTAL     ACCESS:      36915  HIT:      36877  MISS:         38  HIT %:    99.8971  MISS %:   0.102939   MPKI: 0.00076
PSCL2 LOAD TRANSLATION ACCESS:      36915  HIT:      36877  MISS:         38  HIT %:    99.8971  MISS %:   0.102939   MPKI: 0.00076
PSCL2 PREFETCH  REQUESTED:          0  ISSUED:          0  USEFUL:          0  USELESS:          0
PSCL2 USEFUL LOAD PREFETCHES:          0 PREFETCH ISSUED TO LOWER LEVEL:          0  ACCURACY: -nan
PSCL2 TIMELY PREFETCHES:          0 LATE PREFETCHES: 0 DROPPED PREFETCHES: 0
PSCL2 PREFETCHES SAME FILL-ORIGIN LEVEL: 0 DIFFERENT FILL-ORIGIN LEVEL: 0

PSCL2_Dead_block_count 0 0
PSCL2_inaccurate_prefetch_count 0 0
Interactions: positive negative neutral
PSCL2_interactions 0 0 0
PSCL2_positive 0 0 0
PSCL2_negative 0 0 0
PSCL2_neutral 0 0 0 0 0 0
LLC TOTAL     ACCESS:    4196313  HIT:     308514  MISS:    3887799  HIT %:    7.35203  MISS %:     92.648   MPKI: 77.756
LLC LOAD      ACCESS:      66210  HIT:         80  MISS:      66130  HIT %:   0.120828  MISS %:    99.8792   MPKI: 1.3226
LLC RFO       ACCESS:    1800195  HIT:      86806  MISS:    1713389  HIT %:    4.82203  MISS %:     95.178   MPKI: 34.2678
LLC PREFETCH  ACCESS:     524318  HIT:          0  MISS:     524318  HIT %:          0  MISS %:        100   MPKI: 10.4864
LLC WRITEBACK ACCESS:    1800927  HIT:     221365  MISS:    1579562  HIT %:    12.2917  MISS %:    87.7083   MPKI: 31.5912
LLC LOAD TRANSLATION ACCESS:       4663  HIT:        263  MISS:       4400  HIT %:    5.64015  MISS %:    94.3599   MPKI: 0.088
LLC PREFETCH  REQUESTED:          0  ISSUED:          0  USEFUL:          0  USELESS:     544476
LLC USEFUL LOAD PREFETCHES:          0 PREFETCH ISSUED TO LOWER LEVEL:     524318  ACCURACY: 0
LLC TIMELY PREFETCHES:          0 LATE PREFETCHES: 0 DROPPED PREFETCHES: 0
LLC PREFETCHES SAME FILL-ORIGIN LEVEL: 0 DIFFERENT FILL-ORIGIN LEVEL: 0
LLC AVERAGE MISS LATENCY: 368.464 cycles
LLC RQ	ACCESS:    1871093	FORWARD:          0	MERGED:          0	TO_CACHE:    1871084
LLC WQ	ACCESS:    1800927	FORWARD:          9	MERGED:          0	TO_CACHE:    1800927
LLC PQ	ACCESS:     524318	FORWARD:          0	MERGED:          0	TO_CACHE:     524318

LLC_Dead_block_count 1696782 87152
LLC_inaccurate_prefetch_count 524309 9
Interactions: positive negative neutral
LLC_interactions 6412 260372 458116
LLC_positive 2 6410 0
LLC_negative 260272 85 15
LLC_neutral 7 0 175656 194087 88366 0
LLC Dense regions hint to LLC: 0

RAW hits: 488697
Loads Generated: 13022114
Loads sent to L1D: 12533417
Stores Generated: 9189900
Stores sent to L1D: 9189920
Major fault: 0 Minor fault: 25334
Allocated PAGES: 25334

stream: 
stream:times selected: 2240656
stream:pref_filled: 94872
stream:pref_useful: 85769
stream:pref_late: 14262
stream:misses: 35202
stream:misses_by_poll: 0

CS: 
CS:times selected: 390464
CS:pref_filled: 223596
CS:pref_useful: 216264
CS:pref_late: 10002
CS:misses: 72375
CS:misses_by_poll: 1350

CPLX: 
CPLX:times selected: 1847775
CPLX:pref_filled: 213634
CPLX:pref_useful: 204651
CPLX:pref_late: 16415
CPLX:misses: 165144
CPLX:misses_by_poll: 1201

NL_L1: 
NL:times selected: 980
NL:pref_filled: 69
NL:pref_useful: 62
NL:pref_late: 24
NL:misses: 134
NL:misses_by_poll: 0

total selections: 4479875
total_filled: 418304
total_useful: 394262
total_late: 40707
total_polluted: 2551
total_misses_after_warmup: 276168
conflicts: 72438
Degree Incremented Times: 65260
Degree Decremented Times: 0

L1 IP Table Write Accesses: 3978195
L1 IP Table Read Accesses: 3905757
L1 RST Write Accesses: 1846193
L1 RST Read Accesses: 3692386
L1 CSPT Write Accesses: 1846193
L1 CSPT Read Accesses: 5888674
L1 RR Filter Tag Write Accesses: 630875
L1 RR Filter Tag Read Accesses: 303227373
L1 IP Table Tag Write Accesses: 4448670
L1 IP Table Tag Read Accesses: 4448670
L1 RST Tag Write Accesses: 0
L1 RST Tag Read Accesses: 16594330
L1 RR Filter Write Accesses: 0
L1 RR Filter Read Accesses: 13647833
test: 348323
L2 IP Table Read Accesses: 1038505
L2 IP Table Write Accesses: 866310
L2 IP Table Tag Read Accesses: 519376
L2 IP Table Tag Write Accesses: 519376

DRAM Statistics
 CHANNEL 0
 RQ ROW_BUFFER_HIT:     252629  ROW_BUFFER_MISS:    2055223
 DBUS_CONGESTED:          0
 WQ ROW_BUFFER_HIT:     372417  ROW_BUFFER_MISS:    1367674  FULL:       9700

 AVG_CONGESTED_CYCLE: -
 All warmup complete: 2
Channel 0 Bank busy for read cycles: 0
Channel 0 Bank busy for write cycles: 0
Channel 0
Rank 0
0banks busy for read cycles: 9161
0banks busy for write cycles: 0
1banks busy for read cycles: 703845
1banks busy for write cycles: 168412
2banks busy for read cycles: 1046941
2banks busy for write cycles: 168410
3banks busy for read cycles: 1659070
3banks busy for write cycles: 168407
4banks busy for read cycles: 2738208
4banks busy for write cycles: 168405
5banks busy for read cycles: 6992807
5banks busy for write cycles: 168418
6banks busy for read cycles: 10757984
6banks busy for write cycles: 171402
7banks busy for read cycles: 15728646
7banks busy for write cycles: 1973741
8banks busy for read cycles: 18394026
8banks busy for write cycles: 34034633

CPU 0 Branch Prediction Accuracy: 94.9707% MPKI: 0.89818 Average ROB Occupancy at Mispredict: 157.635
Branch types
NOT_BRANCH: 49106746 98.2135%
BRANCH_DIRECT_JUMP: 143974 0.287948%
BRANCH_INDIRECT: 0 0%
BRANCH_CONDITIONAL: 748975 1.49795%
BRANCH_DIRECT_CALL: 0 0%
BRANCH_INDIRECT_CALL: 0 0%
BRANCH_RETURN: 0 0%
BRANCH_OTHER: 0 0%

@sumon_overall_L1D    394262     72330     72330     24038    418304   1208256   1234991
@Sumon_Early_by_class_L1D     61953    182059    150203        16
@Sumon_Late_by_class_L1D     12178      9916     16113        16

@Sumon_Early_by_cycle_L1D     34624     30975     32742     55266     34524    155059     44939      6124         9         0         0         0
@Sumon_Late_by_cycle_L1D      3055      2478      2123      2959     20037      7575
@Sumon_Early_stream_L1D      9827      9796      8392     13956      7106     12842        34         0         0         0         0         0
@Sumon_Early_CS_L1D     12445     11315     12385     24065     14253     87834     19727        35         0         0         0         0
@Sumon_Early_CPLX_L1D     12337      9853     11961     17239     13164     54375     25176      6089         9         0         0         0
@Sumon_Late_stream_L1D       907       827       610       980      6282      2572
@Sumon_Late_CS_L1D      1005       683       529       682      4480      2537
@Sumon_Late_CPLX_L1D      1139       966       982      1297      9266      2463
@sumon_overall_L2C     91739     14274         0    418338    510044    965250    965285
@Sumon_Early_by_class_L2C     30641     61086         0         0
@Sumon_Late_by_class_L2C     10725      3454         0         0

@Sumon_Early_by_cycle_L2C      7539      4404      7885     12858      5838     41009     12187        19         0         0         0         0
@Sumon_Late_by_cycle_L2C        95       344      1194       531      7604      4506
@Sumon_Early_stream_L2C      5983      3444      5559      8011      2730      4897        17         0         0         0         0         0
@Sumon_Early_CS_L2C      1555       958      2326      4846      3107     36110     12165        19         0         0         0         0
@Sumon_Early_CPLX_L2C         0         0         0         0         0         0         0         0         0         0         0         0
@Sumon_Late_stream_L2C         0       263       884       417      6043      3118
@Sumon_Late_CS_L2C         0        81       310       114      1561      1388
@Sumon_Late_CPLX_L2C         0         0         0         0         0         0
DRAM PAGES: 1048576
Allocated PAGES: 25334
