
*** ChampSim Multicore Out-of-Order Simulator ***

Warmup Instructions: 10000000
Simulation Instructions: 50000000
Number of CPUs: 1
LLC sets: 2048
LLC ways: 16
Off-chip DRAM Size: 4096 MB Channels: 1 Width: 64-bit Data Rate: 6400 MT/s
CPU 0 runs traces/SPEC2017/654.roms_s-1070B.champsimtrace.xz
.xz
CPU 0 Bimodal branch predictor
BTB has LRU replacement policy
ITLB has LRU replacement policy
DTLB has LRU replacement policy
STLB has LRU replacement policy
L1I has LRU replacement policy
IP Table Entries: 256
L1D has LRU replacement policy
IP_Table L2 entries: 256
L2C has LRU replacement policy
Initialize Hawkeye state
Heartbeat CPU 0 instructions: 10000002 cycles: 3109884 heartbeat IPC: 3.21555 cumulative IPC: 3.21555 (Simulation time: 0 hr 11 min 39 sec) 

Warmup complete CPU 0 instructions: 10000002 cycles: 3109884 (Simulation time: 0 hr 11 min 39 sec) 

Heartbeat CPU 0 instructions: 20000000 cycles: 13173277 heartbeat IPC: 0.9937 cumulative IPC: 0.9937 (Simulation time: 0 hr 22 min 52 sec) 
Heartbeat CPU 0 instructions: 30000000 cycles: 22183925 heartbeat IPC: 1.1098 cumulative IPC: 1.04855 (Simulation time: 0 hr 33 min 33 sec) 
Heartbeat CPU 0 instructions: 40000003 cycles: 36144476 heartbeat IPC: 0.716304 cumulative IPC: 0.908139 (Simulation time: 0 hr 49 min 12 sec) 
Heartbeat CPU 0 instructions: 50000000 cycles: 44657644 heartbeat IPC: 1.17465 cumulative IPC: 0.962747 (Simulation time: 0 hr 56 min 58 sec) 
Heartbeat CPU 0 instructions: 60000000 cycles: 58361118 heartbeat IPC: 0.729742 cumulative IPC: 0.904957 (Simulation time: 1 hr 5 min 3 sec) 
Finished CPU 0 instructions: 50000002 cycles: 55251236 cumulative IPC: 0.904957 (Simulation time: 1 hr 5 min 3 sec) 

ChampSim completed all CPUs

Region of Interest Statistics

CPU 0 cumulative IPC: 0.904957 instructions: 50000002 cycles: 55251236
ITLB TOTAL     ACCESS:    7609173  HIT:    7609173  MISS:          0  HIT %:        100  MISS %:          0   MPKI: 0
ITLB LOAD TRANSLATION ACCESS:    7609173  HIT:    7609173  MISS:          0  HIT %:        100  MISS %:          0   MPKI: 0
ITLB PREFETCH  REQUESTED:          0  ISSUED:          0  USEFUL:          0  USELESS:          0
ITLB USEFUL LOAD PREFETCHES:          0 PREFETCH ISSUED TO LOWER LEVEL:          0  ACCURACY: -nan
ITLB TIMELY PREFETCHES:          0 LATE PREFETCHES: 0 DROPPED PREFETCHES: 0
ITLB PREFETCHES SAME FILL-ORIGIN LEVEL: 0 DIFFERENT FILL-ORIGIN LEVEL: 0
ITLB AVERAGE MISS LATENCY: -nan cycles
ITLB RQ	ACCESS:    8139201	FORWARD:          0	MERGED:     530029	TO_CACHE:    7609172

ITLB_Dead_block_count 0 0
ITLB_inaccurate_prefetch_count 0 0
Interactions: positive negative neutral
ITLB_interactions 0 0 0
ITLB_positive 0 0 0
ITLB_negative 0 0 0
ITLB_neutral 0 0 0 0 0 0
DTLB TOTAL     ACCESS:   13210959  HIT:   13186872  MISS:      24087  HIT %:    99.8177  MISS %:   0.182326   MPKI: 0.48174
DTLB LOAD TRANSLATION ACCESS:   13210959  HIT:   13186872  MISS:      24087  HIT %:    99.8177  MISS %:   0.182326   MPKI: 0.48174
DTLB PREFETCH  REQUESTED:          0  ISSUED:          0  USEFUL:          0  USELESS:          0
DTLB USEFUL LOAD PREFETCHES:          0 PREFETCH ISSUED TO LOWER LEVEL:          0  ACCURACY: -nan
DTLB TIMELY PREFETCHES:          0 LATE PREFETCHES: 0 DROPPED PREFETCHES: 0
DTLB PREFETCHES SAME FILL-ORIGIN LEVEL: 0 DIFFERENT FILL-ORIGIN LEVEL: 0
DTLB AVERAGE MISS LATENCY: 194.124 cycles
DTLB RQ	ACCESS:   14520649	FORWARD:          0	MERGED:    1285934	TO_CACHE:   13234715

DTLB_Dead_block_count 24083 4
DTLB_inaccurate_prefetch_count 0 0
Interactions: positive negative neutral
DTLB_interactions 0 0 0
DTLB_positive 0 0 0
DTLB_negative 0 0 0
DTLB_neutral 0 0 0 0 0 0
STLB TOTAL     ACCESS:     748178  HIT:     724105  MISS:      24073  HIT %:    96.7825  MISS %:    3.21755   MPKI: 0.48146
STLB LOAD TRANSLATION ACCESS:      24087  HIT:         14  MISS:      24073  HIT %:  0.0581226  MISS %:    99.9419   MPKI: 0.48146
STLB TRANSLATION FROM L1D PREFETCHER ACCESS:     724091  HIT:     724091  MISS:          0  HIT %:        100  MISS %:          0   MPKI: 0
STLB PREFETCH  REQUESTED:          0  ISSUED:          0  USEFUL:          0  USELESS:          0
STLB USEFUL LOAD PREFETCHES:          0 PREFETCH ISSUED TO LOWER LEVEL:          0  ACCURACY: -nan
STLB TIMELY PREFETCHES:          0 LATE PREFETCHES: 0 DROPPED PREFETCHES: 0
STLB PREFETCHES SAME FILL-ORIGIN LEVEL: 0 DIFFERENT FILL-ORIGIN LEVEL: 0
STLB AVERAGE MISS LATENCY: 181.969 cycles
STLB RQ	ACCESS:    2542038	FORWARD:          0	MERGED:    1793860	TO_CACHE:     748178

STLB_Dead_block_count 24069 4
STLB_inaccurate_prefetch_count 0 0
Interactions: positive negative neutral
STLB_interactions 0 0 0
STLB_positive 0 0 0
STLB_negative 0 0 0
STLB_neutral 0 0 0 0 0 0
STLB Hit, L1D data hit: 0
STLB Hit, L2C data hit: 0
STLB Hit, LLC data hit: 0
STLB Hit, LLC data miss: 0
STLB STLB hints to L2: 0
L1D TOTAL     ACCESS:   15040137  HIT:   13916198  MISS:    1123939  HIT %:    92.5271  MISS %:    7.47293   MPKI: 22.4788
L1D LOAD      ACCESS:   11708797  HIT:   11684253  MISS:      24544  HIT %:    99.7904  MISS %:    0.20962   MPKI: 0.49088
L1D RFO       ACCESS:     820745  HIT:     476361  MISS:     344384  HIT %:    58.0401  MISS %:    41.9599   MPKI: 6.88768
L1D PREFETCH  ACCESS:    2510595  HIT:    1755584  MISS:     755011  HIT %:     69.927  MISS %:     30.073   MPKI: 15.1002
L1D PREFETCH  REQUESTED:    5247329  ISSUED:    5035902  USEFUL:     714105  USELESS:      40911
L1D USEFUL LOAD PREFETCHES:     714105 PREFETCH ISSUED TO LOWER LEVEL:     756494  ACCURACY: 94.3967
L1D TIMELY PREFETCHES:     714105 LATE PREFETCHES: 52872 DROPPED PREFETCHES: 0
L1D PREFETCHES SAME FILL-ORIGIN LEVEL: 756494 DIFFERENT FILL-ORIGIN LEVEL: 0
L1D AVERAGE MISS LATENCY: 145.12 cycles
L1D RQ	ACCESS:   18807447	FORWARD:          0	MERGED:    7025524	TO_CACHE:   11781923
L1D WQ	ACCESS:    2738726	FORWARD:          0	MERGED:          0	TO_CACHE:    2738726
L1D PQ	ACCESS:    2517951	FORWARD:          0	MERGED:          0	TO_CACHE:    2517951

L1D_Dead_block_count 5 24539
L1D_inaccurate_prefetch_count 3517 751494
Interactions: positive negative neutral
L1D_interactions 363 3505 756640
L1D_positive 12 159 192
L1D_negative 3295 0 210
L1D_neutral 716290 5338 0 0 12 35000
L1D UNIQUE REGIONS ACCESSED: 0
L1D REGIONS CONFLICTS: 0
L1D Cross Page Prefetch Requests: 0
L1D Same Page Prefetch Requests: 2814375
L1D ROI Sum of L1D PQ occupancy: 45705051
L1D PREFETCHES PUSHED FROM L2C: 0
L1I TOTAL     ACCESS:    8139202  HIT:    8139202  MISS:          0  HIT %:        100  MISS %:          0   MPKI: 0
L1I LOAD      ACCESS:    8139202  HIT:    8139202  MISS:          0  HIT %:        100  MISS %:          0   MPKI: 0
L1I PREFETCH  REQUESTED:          0  ISSUED:          0  USEFUL:          0  USELESS:          0
L1I USEFUL LOAD PREFETCHES:          0 PREFETCH ISSUED TO LOWER LEVEL:          0  ACCURACY: -nan
L1I TIMELY PREFETCHES:          0 LATE PREFETCHES: 0 DROPPED PREFETCHES: 0
L1I PREFETCHES SAME FILL-ORIGIN LEVEL: 0 DIFFERENT FILL-ORIGIN LEVEL: 0
L1I AVERAGE MISS LATENCY: -nan cycles
L1I RQ	ACCESS:   13133070	FORWARD:          0	MERGED:    4993869	TO_CACHE:    8139201

L1I_Dead_block_count 0 0
L1I_inaccurate_prefetch_count 0 0
Interactions: positive negative neutral
L1I_interactions 0 0 0
L1I_positive 0 0 0
L1I_negative 0 0 0
L1I_neutral 0 0 0 0 0 0
BTB TOTAL     ACCESS:    2779529  HIT:    2779520  MISS:          9  HIT %:    99.9997  MISS %: 0.000323796   MPKI: 0.00018
BTB BRANCH_DIRECT_JUMP	ACCESS:          0  HIT:          0  MISS:          0
BTB BRANCH_INDIRECT	ACCESS:          0  HIT:          0  MISS:          0
BTB BRANCH_CONDITIONAL	ACCESS:    2779529  HIT:    2779520  MISS:          9
BTB BRANCH_DIRECT_CALL	ACCESS:          0  HIT:          0  MISS:          0
BTB BRANCH_INDIRECT_CALL	ACCESS:          0  HIT:          0  MISS:          0
BTB BRANCH_RETURN	ACCESS:          0  HIT:          0  MISS:          0
BTB BRANCH_OTHER ACCESS:          0  HIT:          0  MISS:          0

L2C TOTAL     ACCESS:    4260826  HIT:    3103329  MISS:    1157497  HIT %:     72.834  MISS %:     27.166   MPKI: 23.1499
L2C LOAD      ACCESS:      24544  HIT:       3552  MISS:      20992  HIT %:     14.472  MISS %:     85.528   MPKI: 0.41984
L2C DATA LOAD MPKI: 0.41984
L2C INSTRUCTION LOAD MPKI: 0
L2C RFO       ACCESS:     344384  HIT:          0  MISS:     344384  HIT %:          0  MISS %:        100   MPKI: 6.88768
L2C PREFETCH  ACCESS:    3523282  HIT:    2736091  MISS:     787191  HIT %:    77.6575  MISS %:    22.3425   MPKI: 15.7438
L2C DATA PREFETCH MPKI: 15.7438
L2C INSTRUCTION PREFETCH MPKI: 0
L2C WRITEBACK ACCESS:     344519  HIT:     344493  MISS:         26  HIT %:    99.9925  MISS %: 0.00754675   MPKI: 0.00052
L2C LOAD TRANSLATION ACCESS:      24097  HIT:      19193  MISS:       4904  HIT %:    79.6489  MISS %:    20.3511   MPKI: 0.09808
L2C PREFETCH  REQUESTED:    3488398  ISSUED:    3353239  USEFUL:       3023  USELESS:     784068
L2C USEFUL LOAD PREFETCHES:       3023 PREFETCH ISSUED TO LOWER LEVEL:     787661  ACCURACY: 0.383795
L2C TIMELY PREFETCHES:       3023 LATE PREFETCHES: 470 DROPPED PREFETCHES: 0
L2C PREFETCHES SAME FILL-ORIGIN LEVEL: 673980 DIFFERENT FILL-ORIGIN LEVEL: 0
L2C AVERAGE MISS LATENCY: 270.097 cycles
L2C RQ	ACCESS:     393027	FORWARD:          0	MERGED:          0	TO_CACHE:     393027
L2C WQ	ACCESS:     344519	FORWARD:          0	MERGED:          0	TO_CACHE:     344519
L2C PQ	ACCESS:    4108250	FORWARD:          0	MERGED:     306131	TO_CACHE:    3802119

L2C_Dead_block_count 366256 3556
L2C_inaccurate_prefetch_count 778964 8697
Interactions: positive negative neutral
L2C_interactions 11090 10933 973270
L2C_positive 1545 2923 6622
L2C_negative 3008 1190 6735
L2C_neutral 70 42 206624 203947 562130 457
L2C Instructions Evicting Data 0
L2C Translations Evicting Data 4860
L2C Data Evicting Data 1147704
L2C Instructions Evicting Instructions 0
L2C Translations Evicting Instructions 0
L2C Data Evicting Instructions 0
L2C Instructions Evicting Translations 0
L2C Translations Evicting Translations 44
L2C Data Evicting Translations 4863
L2C Dense regions hint from L2: 0
PSCL5 TOTAL     ACCESS:      24073  HIT:      24073  MISS:          0  HIT %:        100  MISS %:          0   MPKI: 0
PSCL5 LOAD TRANSLATION ACCESS:      24073  HIT:      24073  MISS:          0  HIT %:        100  MISS %:          0   MPKI: 0
PSCL5 PREFETCH  REQUESTED:          0  ISSUED:          0  USEFUL:          0  USELESS:          0
PSCL5 USEFUL LOAD PREFETCHES:          0 PREFETCH ISSUED TO LOWER LEVEL:          0  ACCURACY: -nan
PSCL5 TIMELY PREFETCHES:          0 LATE PREFETCHES: 0 DROPPED PREFETCHES: 0
PSCL5 PREFETCHES SAME FILL-ORIGIN LEVEL: 0 DIFFERENT FILL-ORIGIN LEVEL: 0

PSCL5_Dead_block_count 0 0
PSCL5_inaccurate_prefetch_count 0 0
Interactions: positive negative neutral
PSCL5_interactions 0 0 0
PSCL5_positive 0 0 0
PSCL5_negative 0 0 0
PSCL5_neutral 0 0 0 0 0 0
PSCL4 TOTAL     ACCESS:      24073  HIT:      24073  MISS:          0  HIT %:        100  MISS %:          0   MPKI: 0
PSCL4 LOAD TRANSLATION ACCESS:      24073  HIT:      24073  MISS:          0  HIT %:        100  MISS %:          0   MPKI: 0
PSCL4 PREFETCH  REQUESTED:          0  ISSUED:          0  USEFUL:          0  USELESS:          0
PSCL4 USEFUL LOAD PREFETCHES:          0 PREFETCH ISSUED TO LOWER LEVEL:          0  ACCURACY: -nan
PSCL4 TIMELY PREFETCHES:          0 LATE PREFETCHES: 0 DROPPED PREFETCHES: 0
PSCL4 PREFETCHES SAME FILL-ORIGIN LEVEL: 0 DIFFERENT FILL-ORIGIN LEVEL: 0

PSCL4_Dead_block_count 0 0
PSCL4_inaccurate_prefetch_count 0 0
Interactions: positive negative neutral
PSCL4_interactions 0 0 0
PSCL4_positive 0 0 0
PSCL4_negative 0 0 0
PSCL4_neutral 0 0 0 0 0 0
PSCL3 TOTAL     ACCESS:      24073  HIT:      24073  MISS:          0  HIT %:        100  MISS %:          0   MPKI: 0
PSCL3 LOAD TRANSLATION ACCESS:      24073  HIT:      24073  MISS:          0  HIT %:        100  MISS %:          0   MPKI: 0
PSCL3 PREFETCH  REQUESTED:          0  ISSUED:          0  USEFUL:          0  USELESS:          0
PSCL3 USEFUL LOAD PREFETCHES:          0 PREFETCH ISSUED TO LOWER LEVEL:          0  ACCURACY: -nan
PSCL3 TIMELY PREFETCHES:          0 LATE PREFETCHES: 0 DROPPED PREFETCHES: 0
PSCL3 PREFETCHES SAME FILL-ORIGIN LEVEL: 0 DIFFERENT FILL-ORIGIN LEVEL: 0

PSCL3_Dead_block_count 0 0
PSCL3_inaccurate_prefetch_count 0 0
Interactions: positive negative neutral
PSCL3_interactions 0 0 0
PSCL3_positive 0 0 0
PSCL3_negative 0 0 0
PSCL3_neutral 0 0 0 0 0 0
PSCL2 TOTAL     ACCESS:      24073  HIT:      24008  MISS:         65  HIT %:      99.73  MISS %:   0.270012   MPKI: 0.0013
PSCL2 LOAD TRANSLATION ACCESS:      24073  HIT:      24008  MISS:         65  HIT %:      99.73  MISS %:   0.270012   MPKI: 0.0013
PSCL2 PREFETCH  REQUESTED:          0  ISSUED:          0  USEFUL:          0  USELESS:          0
PSCL2 USEFUL LOAD PREFETCHES:          0 PREFETCH ISSUED TO LOWER LEVEL:          0  ACCURACY: -nan
PSCL2 TIMELY PREFETCHES:          0 LATE PREFETCHES: 0 DROPPED PREFETCHES: 0
PSCL2 PREFETCHES SAME FILL-ORIGIN LEVEL: 0 DIFFERENT FILL-ORIGIN LEVEL: 0

PSCL2_Dead_block_count 0 0
PSCL2_inaccurate_prefetch_count 0 0
Interactions: positive negative neutral
PSCL2_interactions 0 0 0
PSCL2_positive 0 0 0
PSCL2_negative 0 0 0
PSCL2_neutral 0 0 0 0 0 0
LLC TOTAL     ACCESS:    1501984  HIT:     167295  MISS:    1334689  HIT %:    11.1383  MISS %:    88.8617   MPKI: 26.6938
LLC LOAD      ACCESS:      20522  HIT:       1090  MISS:      19432  HIT %:    5.31137  MISS %:    94.6886   MPKI: 0.38864
LLC RFO       ACCESS:     344384  HIT:      37327  MISS:     307057  HIT %:    10.8388  MISS %:    89.1612   MPKI: 6.14114
LLC PREFETCH  ACCESS:     787661  HIT:      47218  MISS:     740443  HIT %:    5.99471  MISS %:    94.0053   MPKI: 14.8089
LLC WRITEBACK ACCESS:     344513  HIT:      81532  MISS:     262981  HIT %:    23.6659  MISS %:    76.3341   MPKI: 5.25962
LLC LOAD TRANSLATION ACCESS:       4904  HIT:        128  MISS:       4776  HIT %:    2.61011  MISS %:    97.3899   MPKI: 0.09552
LLC PREFETCH  REQUESTED:          0  ISSUED:          0  USEFUL:      26003  USELESS:     726870
LLC USEFUL LOAD PREFETCHES:      26003 PREFETCH ISSUED TO LOWER LEVEL:     740443  ACCURACY: 3.51182
LLC TIMELY PREFETCHES:      26003 LATE PREFETCHES: 0 DROPPED PREFETCHES: 0
LLC PREFETCHES SAME FILL-ORIGIN LEVEL: 0 DIFFERENT FILL-ORIGIN LEVEL: 0
LLC AVERAGE MISS LATENCY: 207.2 cycles
LLC RQ	ACCESS:     369812	FORWARD:          0	MERGED:          0	TO_CACHE:     369812
LLC WQ	ACCESS:     344513	FORWARD:          0	MERGED:          0	TO_CACHE:     344513
LLC PQ	ACCESS:     787661	FORWARD:          0	MERGED:          0	TO_CACHE:     787661

LLC_Dead_block_count 304575 26692
LLC_inaccurate_prefetch_count 708370 32073
Interactions: positive negative neutral
LLC_interactions 54 156672 746497
LLC_positive 13 27 14
LLC_negative 156647 14 11
LLC_neutral 37 0 157058 162739 426663 0
LLC Dense regions hint to LLC: 0

RAW hits: 2
Loads Generated: 18807450
Loads sent to L1D: 18807447
Stores Generated: 2738725
Stores sent to L1D: 2738726
Major fault: 0 Minor fault: 15227
Allocated PAGES: 15227

stream: 
stream:times selected: 1807970
stream:pref_filled: 907136
stream:pref_useful: 859419
stream:pref_late: 12377
stream:misses: 102
stream:misses_by_poll: 0

CS: 
CS:times selected: 1793455
CS:pref_filled: 1368
CS:pref_useful: 1289
CS:pref_late: 54
CS:misses: 100776
CS:misses_by_poll: 5

CPLX: 
CPLX:times selected: 14443
CPLX:pref_filled: 1250
CPLX:pref_useful: 388
CPLX:pref_late: 17
CPLX:misses: 1102
CPLX:misses_by_poll: 2

NL_L1: 
NL:times selected: 50
NL:pref_filled: 3
NL:pref_useful: 3
NL:pref_late: 0
NL:misses: 7
NL:misses_by_poll: 0

total selections: 3615918
total_filled: 755011
total_useful: 714105
total_late: 12448
total_polluted: 7
total_misses_after_warmup: 97671
conflicts: 20
Degree Incremented Times: 102456
Degree Decremented Times: 3743

L1 IP Table Write Accesses: 11780073
L1 IP Table Read Accesses: 11780053
L1 RST Write Accesses: 1510152
L1 RST Read Accesses: 3020304
L1 CSPT Write Accesses: 1510152
L1 CSPT Read Accesses: 1528120
L1 RR Filter Tag Write Accesses: 2729378
L1 RR Filter Tag Read Accesses: 330065305
L1 IP Table Tag Write Accesses: 11781924
L1 IP Table Tag Read Accesses: 11781924
L1 RST Tag Write Accesses: 0
L1 RST Tag Read Accesses: 13660398
L1 RR Filter Write Accesses: 0
L1 RR Filter Read Accesses: 12909438
test: 42111
L2 IP Table Read Accesses: 1243407
L2 IP Table Write Accesses: 1218877
L2 IP Table Tag Read Accesses: 621707
L2 IP Table Tag Write Accesses: 621707

DRAM Statistics
 CHANNEL 0
 RQ ROW_BUFFER_HIT:     254822  ROW_BUFFER_MISS:     816875
 DBUS_CONGESTED:        291
 WQ ROW_BUFFER_HIT:     137965  ROW_BUFFER_MISS:     184587  FULL:       1139

 AVG_CONGESTED_CYCLE: 6
 All warmup complete: 2
Channel 0 Bank busy for read cycles: 0
Channel 0 Bank busy for write cycles: 0
Channel 0
Rank 0
0banks busy for read cycles: 361876
0banks busy for write cycles: 1353
1banks busy for read cycles: 10102008
1banks busy for write cycles: 303089
2banks busy for read cycles: 12612736
2banks busy for write cycles: 231561
3banks busy for read cycles: 9084525
3banks busy for write cycles: 188546
4banks busy for read cycles: 3893288
4banks busy for write cycles: 181801
5banks busy for read cycles: 1494722
5banks busy for write cycles: 185352
6banks busy for read cycles: 1340674
6banks busy for write cycles: 225368
7banks busy for read cycles: 2768598
7banks busy for write cycles: 644197
8banks busy for read cycles: 3169457
8banks busy for write cycles: 8462086

CPU 0 Branch Prediction Accuracy: 99.8858% MPKI: 0.06352 Average ROB Occupancy at Mispredict: 181.57
Branch types
NOT_BRANCH: 47219347 94.4387%
BRANCH_DIRECT_JUMP: 0 0%
BRANCH_INDIRECT: 0 0%
BRANCH_CONDITIONAL: 2780656 5.56131%
BRANCH_DIRECT_CALL: 0 0%
BRANCH_INDIRECT_CALL: 0 0%
BRANCH_RETURN: 0 0%
BRANCH_OTHER: 0 0%

@sumon_overall_L1D    714105     52872     52872     40911    755011   5035902   5247329
@Sumon_Early_by_class_L1D    712579      1138       388         0
@Sumon_Late_by_class_L1D     12151        54        17         0

@Sumon_Early_by_cycle_L1D     18966     33596     81444     16970     11918    518994     32215         2         0         0         0         0
@Sumon_Late_by_cycle_L1D      2681      2011       885      1114      4782       749
@Sumon_Early_stream_L1D     18885     33443     81390     16853     11701    518138     32169         0         0         0         0         0
@Sumon_Early_CS_L1D        79       152        54       116       217       520         0         0         0         0         0         0
@Sumon_Early_CPLX_L1D         2         1         0         1         0       336        46         2         0         0         0         0
@Sumon_Late_stream_L1D      2664      1996       875      1107      4762       747
@Sumon_Late_CS_L1D        17        15         6         4        11         1
@Sumon_Late_CPLX_L1D         0         0         4         3         9         1
@sumon_overall_L2C      3023       470         0    784068    787191   3353239   3488398
@Sumon_Early_by_class_L2C      3023         0         0         0
@Sumon_Late_by_class_L2C       469         1         0         0

@Sumon_Early_by_cycle_L2C        35        70        69        75        49       761      1953        11         0         0         0         0
@Sumon_Late_by_cycle_L2C         0         0        12        29       356        73
@Sumon_Early_stream_L2C        35        70        69        75        49       761      1953        11         0         0         0         0
@Sumon_Early_CS_L2C         0         0         0         0         0         0         0         0         0         0         0         0
@Sumon_Early_CPLX_L2C         0         0         0         0         0         0         0         0         0         0         0         0
@Sumon_Late_stream_L2C         0         0        12        29       355        73
@Sumon_Late_CS_L2C         0         0         0         0         1         0
@Sumon_Late_CPLX_L2C         0         0         0         0         0         0
DRAM PAGES: 1048576
Allocated PAGES: 15227
