
*** ChampSim Multicore Out-of-Order Simulator ***

Warmup Instructions: 10000000
Simulation Instructions: 50000000
Number of CPUs: 1
LLC sets: 2048
LLC ways: 16
Off-chip DRAM Size: 4096 MB Channels: 1 Width: 64-bit Data Rate: 6400 MT/s
CPU 0 runs traces/SPEC2017/654.roms_s-293B.champsimtrace.xz
.xz
CPU 0 Bimodal branch predictor
BTB has LRU replacement policy
ITLB has LRU replacement policy
DTLB has LRU replacement policy
STLB has LRU replacement policy
L1I has LRU replacement policy
IP Table Entries: 256
L1D has LRU replacement policy
IP_Table L2 entries: 256
L2C has LRU replacement policy
Initialize Hawkeye state
Heartbeat CPU 0 instructions: 10000001 cycles: 3119031 heartbeat IPC: 3.20612 cumulative IPC: 3.20612 (Simulation time: 0 hr 10 min 59 sec) 

Warmup complete CPU 0 instructions: 10000001 cycles: 3119031 (Simulation time: 0 hr 10 min 59 sec) 

Heartbeat CPU 0 instructions: 20000003 cycles: 12893383 heartbeat IPC: 1.02309 cumulative IPC: 1.02309 (Simulation time: 0 hr 20 min 16 sec) 
Heartbeat CPU 0 instructions: 30000000 cycles: 22345228 heartbeat IPC: 1.05799 cumulative IPC: 1.04025 (Simulation time: 0 hr 29 min 22 sec) 
Heartbeat CPU 0 instructions: 40000003 cycles: 32099284 heartbeat IPC: 1.02521 cumulative IPC: 1.03519 (Simulation time: 0 hr 38 min 42 sec) 
Heartbeat CPU 0 instructions: 50000000 cycles: 41559368 heartbeat IPC: 1.05707 cumulative IPC: 1.04057 (Simulation time: 0 hr 47 min 39 sec) 
Heartbeat CPU 0 instructions: 60000002 cycles: 51322573 heartbeat IPC: 1.02425 cumulative IPC: 1.03727 (Simulation time: 0 hr 55 min 38 sec) 
Finished CPU 0 instructions: 50000001 cycles: 48203542 cumulative IPC: 1.03727 (Simulation time: 0 hr 55 min 38 sec) 

ChampSim completed all CPUs

Region of Interest Statistics

CPU 0 cumulative IPC: 1.03727 instructions: 50000001 cycles: 48203542
ITLB TOTAL     ACCESS:    7041518  HIT:    7041518  MISS:          0  HIT %:        100  MISS %:          0   MPKI: 0
ITLB LOAD TRANSLATION ACCESS:    7041518  HIT:    7041518  MISS:          0  HIT %:        100  MISS %:          0   MPKI: 0
ITLB PREFETCH  REQUESTED:          0  ISSUED:          0  USEFUL:          0  USELESS:          0
ITLB USEFUL LOAD PREFETCHES:          0 PREFETCH ISSUED TO LOWER LEVEL:          0  ACCURACY: -nan
ITLB TIMELY PREFETCHES:          0 LATE PREFETCHES: 0 DROPPED PREFETCHES: 0
ITLB PREFETCHES SAME FILL-ORIGIN LEVEL: 0 DIFFERENT FILL-ORIGIN LEVEL: 0
ITLB AVERAGE MISS LATENCY: -nan cycles
ITLB RQ	ACCESS:    8964512	FORWARD:          0	MERGED:    1922994	TO_CACHE:    7041518

ITLB_Dead_block_count 0 0
ITLB_inaccurate_prefetch_count 0 0
Interactions: positive negative neutral
ITLB_interactions 0 0 0
ITLB_positive 0 0 0
ITLB_negative 0 0 0
ITLB_neutral 0 0 0 0 0 0
DTLB TOTAL     ACCESS:   13468914  HIT:   13453905  MISS:      15009  HIT %:    99.8886  MISS %:   0.111434   MPKI: 0.30018
DTLB LOAD TRANSLATION ACCESS:   13468914  HIT:   13453905  MISS:      15009  HIT %:    99.8886  MISS %:   0.111434   MPKI: 0.30018
DTLB PREFETCH  REQUESTED:          0  ISSUED:          0  USEFUL:          0  USELESS:          0
DTLB USEFUL LOAD PREFETCHES:          0 PREFETCH ISSUED TO LOWER LEVEL:          0  ACCURACY: -nan
DTLB TIMELY PREFETCHES:          0 LATE PREFETCHES: 0 DROPPED PREFETCHES: 0
DTLB PREFETCHES SAME FILL-ORIGIN LEVEL: 0 DIFFERENT FILL-ORIGIN LEVEL: 0
DTLB AVERAGE MISS LATENCY: 131.156 cycles
DTLB RQ	ACCESS:   15528136	FORWARD:          0	MERGED:    2029662	TO_CACHE:   13498474

DTLB_Dead_block_count 15005 4
DTLB_inaccurate_prefetch_count 0 0
Interactions: positive negative neutral
DTLB_interactions 0 0 0
DTLB_positive 0 0 0
DTLB_negative 0 0 0
DTLB_neutral 0 0 0 0 0 0
STLB TOTAL     ACCESS:     418450  HIT:     413410  MISS:       5040  HIT %:    98.7956  MISS %:    1.20444   MPKI: 0.1008
STLB LOAD TRANSLATION ACCESS:      15009  HIT:       9969  MISS:       5040  HIT %:    66.4201  MISS %:    33.5799   MPKI: 0.1008
STLB TRANSLATION FROM L1D PREFETCHER ACCESS:     403441  HIT:     403441  MISS:          0  HIT %:        100  MISS %:          0   MPKI: 0
STLB PREFETCH  REQUESTED:          0  ISSUED:          0  USEFUL:          0  USELESS:          0
STLB USEFUL LOAD PREFETCHES:          0 PREFETCH ISSUED TO LOWER LEVEL:          0  ACCURACY: -nan
STLB TIMELY PREFETCHES:          0 LATE PREFETCHES: 0 DROPPED PREFETCHES: 0
STLB PREFETCHES SAME FILL-ORIGIN LEVEL: 0 DIFFERENT FILL-ORIGIN LEVEL: 0
STLB AVERAGE MISS LATENCY: 361.996 cycles
STLB RQ	ACCESS:    1494129	FORWARD:          0	MERGED:    1075679	TO_CACHE:     418450

STLB_Dead_block_count 5036 4
STLB_inaccurate_prefetch_count 0 0
Interactions: positive negative neutral
STLB_interactions 0 0 0
STLB_positive 0 0 0
STLB_negative 0 0 0
STLB_neutral 0 0 0 0 0 0
STLB Hit, L1D data hit: 0
STLB Hit, L2C data hit: 0
STLB Hit, LLC data hit: 0
STLB Hit, LLC data miss: 0
STLB STLB hints to L2: 0
L1D TOTAL     ACCESS:   16598094  HIT:   15969570  MISS:     628524  HIT %:    96.2133  MISS %:    3.78672   MPKI: 12.5705
L1D LOAD      ACCESS:   10895010  HIT:   10881739  MISS:      13271  HIT %:    99.8782  MISS %:   0.121808   MPKI: 0.26542
L1D RFO       ACCESS:    4224918  HIT:    3992788  MISS:     232130  HIT %:    94.5057  MISS %:    5.49431   MPKI: 4.6426
L1D PREFETCH  ACCESS:    1478166  HIT:    1095043  MISS:     383123  HIT %:    74.0812  MISS %:    25.9188   MPKI: 7.66246
L1D PREFETCH  REQUESTED:    2972757  ISSUED:    2958240  USEFUL:     369921  USELESS:      13185
L1D USEFUL LOAD PREFETCHES:     369921 PREFETCH ISSUED TO LOWER LEVEL:     384229  ACCURACY: 96.2762
L1D TIMELY PREFETCHES:     369921 LATE PREFETCHES: 1268 DROPPED PREFETCHES: 0
L1D PREFETCHES SAME FILL-ORIGIN LEVEL: 384229 DIFFERENT FILL-ORIGIN LEVEL: 0
L1D AVERAGE MISS LATENCY: 65.3886 cycles
L1D RQ	ACCESS:   16821340	FORWARD:          0	MERGED:    5774282	TO_CACHE:   10904164
L1D WQ	ACCESS:    4623972	FORWARD:     142894	MERGED:          0	TO_CACHE:    4623972
L1D PQ	ACCESS:    1479120	FORWARD:          0	MERGED:          0	TO_CACHE:    1479120

L1D_Dead_block_count 151 13120
L1D_inaccurate_prefetch_count 6 383117
Interactions: positive negative neutral
L1D_interactions 1225 6 385899
L1D_positive 1225 0 0
L1D_negative 6 0 0
L1D_neutral 372714 4007 0 0 0 9178
L1D UNIQUE REGIONS ACCESSED: 0
L1D REGIONS CONFLICTS: 0
L1D Cross Page Prefetch Requests: 0
L1D Same Page Prefetch Requests: 1671388
L1D ROI Sum of L1D PQ occupancy: 21165080
L1D PREFETCHES PUSHED FROM L2C: 0
L1I TOTAL     ACCESS:    8964510  HIT:    8964510  MISS:          0  HIT %:        100  MISS %:          0   MPKI: 0
L1I LOAD      ACCESS:    8964510  HIT:    8964510  MISS:          0  HIT %:        100  MISS %:          0   MPKI: 0
L1I PREFETCH  REQUESTED:          0  ISSUED:          0  USEFUL:          0  USELESS:          0
L1I USEFUL LOAD PREFETCHES:          0 PREFETCH ISSUED TO LOWER LEVEL:          0  ACCURACY: -nan
L1I TIMELY PREFETCHES:          0 LATE PREFETCHES: 0 DROPPED PREFETCHES: 0
L1I PREFETCHES SAME FILL-ORIGIN LEVEL: 0 DIFFERENT FILL-ORIGIN LEVEL: 0
L1I AVERAGE MISS LATENCY: -nan cycles
L1I RQ	ACCESS:   11480968	FORWARD:          0	MERGED:    2516456	TO_CACHE:    8964512

L1I_Dead_block_count 0 0
L1I_inaccurate_prefetch_count 0 0
Interactions: positive negative neutral
L1I_interactions 0 0 0
L1I_positive 0 0 0
L1I_negative 0 0 0
L1I_neutral 0 0 0 0 0 0
BTB TOTAL     ACCESS:     648184  HIT:     648169  MISS:         15  HIT %:    99.9977  MISS %: 0.00231416   MPKI: 0.0003
BTB BRANCH_DIRECT_JUMP	ACCESS:          8  HIT:          7  MISS:          1
BTB BRANCH_INDIRECT	ACCESS:          0  HIT:          0  MISS:          0
BTB BRANCH_CONDITIONAL	ACCESS:     648176  HIT:     648162  MISS:         14
BTB BRANCH_DIRECT_CALL	ACCESS:          0  HIT:          0  MISS:          0
BTB BRANCH_INDIRECT_CALL	ACCESS:          0  HIT:          0  MISS:          0
BTB BRANCH_RETURN	ACCESS:          0  HIT:          0  MISS:          0
BTB BRANCH_OTHER ACCESS:          0  HIT:          0  MISS:          0

L2C TOTAL     ACCESS:    2690263  HIT:    2153784  MISS:     536479  HIT %:    80.0585  MISS %:    19.9415   MPKI: 10.7296
L2C LOAD      ACCESS:      13271  HIT:       6210  MISS:       7061  HIT %:    46.7938  MISS %:    53.2062   MPKI: 0.14122
L2C DATA LOAD MPKI: 0.14122
L2C INSTRUCTION LOAD MPKI: 0
L2C RFO       ACCESS:     232130  HIT:        380  MISS:     231750  HIT %:   0.163701  MISS %:    99.8363   MPKI: 4.635
L2C PREFETCH  ACCESS:    2186102  HIT:    1892859  MISS:     293243  HIT %:     86.586  MISS %:     13.414   MPKI: 5.86486
L2C DATA PREFETCH MPKI: 5.86486
L2C INSTRUCTION PREFETCH MPKI: 0
L2C WRITEBACK ACCESS:     251142  HIT:     250837  MISS:        305  HIT %:    99.8786  MISS %:   0.121445   MPKI: 0.0061
L2C LOAD TRANSLATION ACCESS:       7618  HIT:       3498  MISS:       4120  HIT %:    45.9176  MISS %:    54.0824   MPKI: 0.0824
L2C PREFETCH  REQUESTED:    1953326  ISSUED:    1930185  USEFUL:        972  USELESS:     291209
L2C USEFUL LOAD PREFETCHES:        972 PREFETCH ISSUED TO LOWER LEVEL:     293269  ACCURACY: 0.331436
L2C TIMELY PREFETCHES:        972 LATE PREFETCHES: 26 DROPPED PREFETCHES: 0
L2C PREFETCHES SAME FILL-ORIGIN LEVEL: 251223 DIFFERENT FILL-ORIGIN LEVEL: 0
L2C AVERAGE MISS LATENCY: 123.441 cycles
L2C RQ	ACCESS:     253019	FORWARD:          0	MERGED:          0	TO_CACHE:     253019
L2C WQ	ACCESS:     251142	FORWARD:          0	MERGED:          0	TO_CACHE:     251142
L2C PQ	ACCESS:    2313308	FORWARD:          0	MERGED:      97720	TO_CACHE:    2215588

L2C_Dead_block_count 236469 6436
L2C_inaccurate_prefetch_count 290345 2924
Interactions: positive negative neutral
L2C_interactions 5410 5194 393945
L2C_positive 1376 2518 1516
L2C_negative 2565 832 1797
L2C_neutral 17 39 109595 107917 176364 13
L2C Instructions Evicting Data 0
L2C Translations Evicting Data 4093
L2C Data Evicting Data 528012
L2C Instructions Evicting Instructions 0
L2C Translations Evicting Instructions 0
L2C Data Evicting Instructions 0
L2C Instructions Evicting Translations 0
L2C Translations Evicting Translations 27
L2C Data Evicting Translations 4042
L2C Dense regions hint from L2: 0
PSCL5 TOTAL     ACCESS:       5040  HIT:       5040  MISS:          0  HIT %:        100  MISS %:          0   MPKI: 0
PSCL5 LOAD TRANSLATION ACCESS:       5040  HIT:       5040  MISS:          0  HIT %:        100  MISS %:          0   MPKI: 0
PSCL5 PREFETCH  REQUESTED:          0  ISSUED:          0  USEFUL:          0  USELESS:          0
PSCL5 USEFUL LOAD PREFETCHES:          0 PREFETCH ISSUED TO LOWER LEVEL:          0  ACCURACY: -nan
PSCL5 TIMELY PREFETCHES:          0 LATE PREFETCHES: 0 DROPPED PREFETCHES: 0
PSCL5 PREFETCHES SAME FILL-ORIGIN LEVEL: 0 DIFFERENT FILL-ORIGIN LEVEL: 0

PSCL5_Dead_block_count 0 0
PSCL5_inaccurate_prefetch_count 0 0
Interactions: positive negative neutral
PSCL5_interactions 0 0 0
PSCL5_positive 0 0 0
PSCL5_negative 0 0 0
PSCL5_neutral 0 0 0 0 0 0
PSCL4 TOTAL     ACCESS:       5040  HIT:       5040  MISS:          0  HIT %:        100  MISS %:          0   MPKI: 0
PSCL4 LOAD TRANSLATION ACCESS:       5040  HIT:       5040  MISS:          0  HIT %:        100  MISS %:          0   MPKI: 0
PSCL4 PREFETCH  REQUESTED:          0  ISSUED:          0  USEFUL:          0  USELESS:          0
PSCL4 USEFUL LOAD PREFETCHES:          0 PREFETCH ISSUED TO LOWER LEVEL:          0  ACCURACY: -nan
PSCL4 TIMELY PREFETCHES:          0 LATE PREFETCHES: 0 DROPPED PREFETCHES: 0
PSCL4 PREFETCHES SAME FILL-ORIGIN LEVEL: 0 DIFFERENT FILL-ORIGIN LEVEL: 0

PSCL4_Dead_block_count 0 0
PSCL4_inaccurate_prefetch_count 0 0
Interactions: positive negative neutral
PSCL4_interactions 0 0 0
PSCL4_positive 0 0 0
PSCL4_negative 0 0 0
PSCL4_neutral 0 0 0 0 0 0
PSCL3 TOTAL     ACCESS:       5031  HIT:       4954  MISS:         77  HIT %:    98.4695  MISS %:    1.53051   MPKI: 0.00154
PSCL3 LOAD TRANSLATION ACCESS:       5031  HIT:       4954  MISS:         77  HIT %:    98.4695  MISS %:    1.53051   MPKI: 0.00154
PSCL3 PREFETCH  REQUESTED:          0  ISSUED:          0  USEFUL:          0  USELESS:          0
PSCL3 USEFUL LOAD PREFETCHES:          0 PREFETCH ISSUED TO LOWER LEVEL:          0  ACCURACY: -nan
PSCL3 TIMELY PREFETCHES:          0 LATE PREFETCHES: 0 DROPPED PREFETCHES: 0
PSCL3 PREFETCHES SAME FILL-ORIGIN LEVEL: 0 DIFFERENT FILL-ORIGIN LEVEL: 0

PSCL3_Dead_block_count 0 0
PSCL3_inaccurate_prefetch_count 0 0
Interactions: positive negative neutral
PSCL3_interactions 0 0 0
PSCL3_positive 0 0 0
PSCL3_negative 0 0 0
PSCL3_neutral 0 0 0 0 0 0
PSCL2 TOTAL     ACCESS:       5040  HIT:       2517  MISS:       2523  HIT %:    49.9405  MISS %:    50.0595   MPKI: 0.05046
PSCL2 LOAD TRANSLATION ACCESS:       5040  HIT:       2517  MISS:       2523  HIT %:    49.9405  MISS %:    50.0595   MPKI: 0.05046
PSCL2 PREFETCH  REQUESTED:          0  ISSUED:          0  USEFUL:          0  USELESS:          0
PSCL2 USEFUL LOAD PREFETCHES:          0 PREFETCH ISSUED TO LOWER LEVEL:          0  ACCURACY: -nan
PSCL2 TIMELY PREFETCHES:          0 LATE PREFETCHES: 0 DROPPED PREFETCHES: 0
PSCL2 PREFETCHES SAME FILL-ORIGIN LEVEL: 0 DIFFERENT FILL-ORIGIN LEVEL: 0

PSCL2_Dead_block_count 0 0
PSCL2_inaccurate_prefetch_count 0 0
Interactions: positive negative neutral
PSCL2_interactions 0 0 0
PSCL2_positive 0 0 0
PSCL2_negative 0 0 0
PSCL2_neutral 0 0 0 0 0 0
LLC TOTAL     ACCESS:     788103  HIT:     448030  MISS:     340073  HIT %:    56.8492  MISS %:    43.1508   MPKI: 6.80146
LLC LOAD      ACCESS:       7035  HIT:       2365  MISS:       4670  HIT %:    33.6176  MISS %:    66.3824   MPKI: 0.0934
LLC RFO       ACCESS:     231750  HIT:     150926  MISS:      80824  HIT %:    65.1245  MISS %:    34.8755   MPKI: 1.61648
LLC PREFETCH  ACCESS:     293269  HIT:     117471  MISS:     175798  HIT %:    40.0557  MISS %:    59.9443   MPKI: 3.51596
LLC WRITEBACK ACCESS:     251929  HIT:     176254  MISS:      75675  HIT %:    69.9618  MISS %:    30.0382   MPKI: 1.5135
LLC LOAD TRANSLATION ACCESS:       4120  HIT:       1014  MISS:       3106  HIT %:    24.6117  MISS %:    75.3883   MPKI: 0.06212
LLC PREFETCH  REQUESTED:          0  ISSUED:          0  USEFUL:      36404  USELESS:     143645
LLC USEFUL LOAD PREFETCHES:      36404 PREFETCH ISSUED TO LOWER LEVEL:     175798  ACCURACY: 20.7079
LLC TIMELY PREFETCHES:      36404 LATE PREFETCHES: 0 DROPPED PREFETCHES: 0
LLC PREFETCHES SAME FILL-ORIGIN LEVEL: 0 DIFFERENT FILL-ORIGIN LEVEL: 0
LLC AVERAGE MISS LATENCY: 146.302 cycles
LLC RQ	ACCESS:     242905	FORWARD:          0	MERGED:          0	TO_CACHE:     242905
LLC WQ	ACCESS:     251929	FORWARD:          0	MERGED:          0	TO_CACHE:     251929
LLC PQ	ACCESS:     293269	FORWARD:          0	MERGED:          0	TO_CACHE:     293269

LLC_Dead_block_count 69863 18737
LLC_inaccurate_prefetch_count 128804 46994
Interactions: positive negative neutral
LLC_interactions 622 45055 156939
LLC_positive 130 449 43
LLC_negative 44753 149 153
LLC_neutral 237 0 39105 26220 91377 0
LLC Dense regions hint to LLC: 0

RAW hits: 560536
Loads Generated: 17381878
Loads sent to L1D: 16821340
Stores Generated: 4623969
Stores sent to L1D: 4623972
Major fault: 0 Minor fault: 6614
Allocated PAGES: 6614

stream: 
stream:times selected: 510331
stream:pref_filled: 438234
stream:pref_useful: 423077
stream:pref_late: 425
stream:misses: 20
stream:misses_by_poll: 0

CS: 
CS:times selected: 500911
CS:pref_filled: 246
CS:pref_useful: 241
CS:pref_late: 1
CS:misses: 18339
CS:misses_by_poll: 0

CPLX: 
CPLX:times selected: 9350
CPLX:pref_filled: 162
CPLX:pref_useful: 34
CPLX:pref_late: 0
CPLX:misses: 159
CPLX:misses_by_poll: 0

NL_L1: 
NL:times selected: 6
NL:pref_filled: 3
NL:pref_useful: 3
NL:pref_late: 0
NL:misses: 0
NL:misses_by_poll: 0

total selections: 1020598
total_filled: 383123
total_useful: 369921
total_late: 431
total_polluted: 0
total_misses_after_warmup: 22426
conflicts: 32913
Degree Incremented Times: 50830
Degree Decremented Times: 0

L1 IP Table Write Accesses: 10237562
L1 IP Table Read Accesses: 10204649
L1 RST Write Accesses: 447504
L1 RST Read Accesses: 895008
L1 CSPT Write Accesses: 447504
L1 CSPT Read Accesses: 473031
L1 RR Filter Tag Write Accesses: 1493637
L1 RR Filter Tag Read Accesses: 100744996
L1 IP Table Tag Write Accesses: 10904165
L1 IP Table Tag Read Accesses: 10904165
L1 RST Tag Write Accesses: 0
L1 RST Tag Read Accesses: 3850637
L1 RR Filter Write Accesses: 0
L1 RR Filter Read Accesses: 3825196
test: 11108
L2 IP Table Read Accesses: 701000
L2 IP Table Write Accesses: 688323
L2 IP Table Tag Read Accesses: 350720
L2 IP Table Tag Write Accesses: 350720

DRAM Statistics
 CHANNEL 0
 RQ ROW_BUFFER_HIT:      72895  ROW_BUFFER_MISS:     191327
 DBUS_CONGESTED:        128
 WQ ROW_BUFFER_HIT:      22923  ROW_BUFFER_MISS:      90679  FULL:         27

 AVG_CONGESTED_CYCLE: 5
 All warmup complete: 2
Channel 0 Bank busy for read cycles: 0
Channel 0 Bank busy for write cycles: 0
Channel 0
Rank 0
0banks busy for read cycles: 26054821
0banks busy for write cycles: 26006
1banks busy for read cycles: 6647341
1banks busy for write cycles: 3229435
2banks busy for read cycles: 4573221
2banks busy for write cycles: 1078750
3banks busy for read cycles: 1909766
3banks busy for write cycles: 426013
4banks busy for read cycles: 638609
4banks busy for write cycles: 194820
5banks busy for read cycles: 378955
5banks busy for write cycles: 151184
6banks busy for read cycles: 271785
6banks busy for write cycles: 136449
7banks busy for read cycles: 497269
7banks busy for write cycles: 261837
8banks busy for read cycles: 200896
8banks busy for write cycles: 1526386

CPU 0 Branch Prediction Accuracy: 99.7993% MPKI: 0.02604 Average ROB Occupancy at Mispredict: 52.4055
Branch types
NOT_BRANCH: 49351064 98.7021%
BRANCH_DIRECT_JUMP: 8 1.6e-05%
BRANCH_INDIRECT: 0 0%
BRANCH_CONDITIONAL: 648608 1.29722%
BRANCH_DIRECT_CALL: 0 0%
BRANCH_INDIRECT_CALL: 0 0%
BRANCH_RETURN: 0 0%
BRANCH_OTHER: 0 0%

@sumon_overall_L1D    369921      1268      1268     13185    383123   2958240   2972757
@Sumon_Early_by_class_L1D    369691       174        31         0
@Sumon_Late_by_class_L1D       409         0         0         0

@Sumon_Early_by_cycle_L1D      1842      3527      7258     12301     65677    197829     14006      5837     61626        18         0         0
@Sumon_Late_by_cycle_L1D        49       109        80        45       127         4
@Sumon_Early_stream_L1D      1832      3501      7222     12286     65661    197772     13986      5794     61621        16         0         0
@Sumon_Early_CS_L1D         1        10        36        10         8        50        18        41         0         0         0         0
@Sumon_Early_CPLX_L1D         0         0         0         5         8         7         2         2         5         2         0         0
@Sumon_Late_stream_L1D        47       106        80        45       127         4
@Sumon_Late_CS_L1D         0         0         0         0         0         0
@Sumon_Late_CPLX_L1D         0         0         0         0         0         0
@sumon_overall_L2C       972        26         0    291209    293243   1930185   1953326
@Sumon_Early_by_class_L2C       912         0         0         0
@Sumon_Late_by_class_L2C        15         0         0         0

@Sumon_Early_by_cycle_L2C        62        66        37        97       144        98         9         0         5        80         0       374
@Sumon_Late_by_cycle_L2C         3         0         1        10         6         6
@Sumon_Early_stream_L2C        57        50        35        94       139        87         9         0         5        72         0       364
@Sumon_Early_CS_L2C         0         0         0         0         0         0         0         0         0         0         0         0
@Sumon_Early_CPLX_L2C         0         0         0         0         0         0         0         0         0         0         0         0
@Sumon_Late_stream_L2C         0         0         0        10         5         0
@Sumon_Late_CS_L2C         0         0         0         0         0         0
@Sumon_Late_CPLX_L2C         0         0         0         0         0         0
DRAM PAGES: 1048576
Allocated PAGES: 6614
