
*** ChampSim Multicore Out-of-Order Simulator ***

Warmup Instructions: 10000000
Simulation Instructions: 50000000
Number of CPUs: 1
LLC sets: 2048
LLC ways: 16
Off-chip DRAM Size: 4096 MB Channels: 1 Width: 64-bit Data Rate: 6400 MT/s
CPU 0 runs traces/SPEC2017/602.gcc_s-734B.champsimtrace.xz
.xz
CPU 0 Bimodal branch predictor
BTB has LRU replacement policy
ITLB has LRU replacement policy
DTLB has LRU replacement policy
STLB has LRU replacement policy
L1I has LRU replacement policy
IP Table Entries: 256
L1D has LRU replacement policy
IP_Table L2 entries: 256
L2C has LRU replacement policy
Initialize DRRIP state for LLC
Heartbeat CPU 0 instructions: 10000002 cycles: 3229168 heartbeat IPC: 3.09677 cumulative IPC: 3.09677 (Simulation time: 0 hr 23 min 47 sec) 

Warmup complete CPU 0 instructions: 10000002 cycles: 3229168 (Simulation time: 0 hr 23 min 47 sec) 

Heartbeat CPU 0 instructions: 20000000 cycles: 28302127 heartbeat IPC: 0.398836 cumulative IPC: 0.398836 (Simulation time: 0 hr 45 min 26 sec) 
Heartbeat CPU 0 instructions: 30000000 cycles: 53185340 heartbeat IPC: 0.401877 cumulative IPC: 0.400351 (Simulation time: 1 hr 6 min 56 sec) 
Heartbeat CPU 0 instructions: 40000002 cycles: 78278567 heartbeat IPC: 0.398514 cumulative IPC: 0.399737 (Simulation time: 1 hr 28 min 19 sec) 
Heartbeat CPU 0 instructions: 50000000 cycles: 103032467 heartbeat IPC: 0.403977 cumulative IPC: 0.400788 (Simulation time: 1 hr 48 min 38 sec) 
Heartbeat CPU 0 instructions: 60000000 cycles: 127818630 heartbeat IPC: 0.403451 cumulative IPC: 0.401318 (Simulation time: 2 hr 3 min 2 sec) 
Finished CPU 0 instructions: 50000000 cycles: 124589476 cumulative IPC: 0.401318 (Simulation time: 2 hr 3 min 2 sec) 

ChampSim completed all CPUs

Region of Interest Statistics

CPU 0 cumulative IPC: 0.401318 instructions: 50000000 cycles: 124589476
ITLB TOTAL     ACCESS:    7536548  HIT:    7536546  MISS:          2  HIT %:        100  MISS %: 2.65373e-05   MPKI: 4e-05
ITLB LOAD TRANSLATION ACCESS:    7536548  HIT:    7536546  MISS:          2  HIT %:        100  MISS %: 2.65373e-05   MPKI: 4e-05
ITLB PREFETCH  REQUESTED:          0  ISSUED:          0  USEFUL:          0  USELESS:          0
ITLB USEFUL LOAD PREFETCHES:          0 PREFETCH ISSUED TO LOWER LEVEL:          0  ACCURACY: -nan
ITLB TIMELY PREFETCHES:          0 LATE PREFETCHES: 0 DROPPED PREFETCHES: 0
ITLB PREFETCHES SAME FILL-ORIGIN LEVEL: 0 DIFFERENT FILL-ORIGIN LEVEL: 0
ITLB AVERAGE MISS LATENCY: 588 cycles
ITLB RQ	ACCESS:    8174505	FORWARD:          0	MERGED:     637957	TO_CACHE:    7536548

DTLB TOTAL     ACCESS:   14735112  HIT:   14720747  MISS:      14365  HIT %:    99.9025  MISS %:  0.0974882   MPKI: 0.2873
DTLB LOAD TRANSLATION ACCESS:   14735112  HIT:   14720747  MISS:      14365  HIT %:    99.9025  MISS %:  0.0974882   MPKI: 0.2873
DTLB PREFETCH  REQUESTED:          0  ISSUED:          0  USEFUL:          0  USELESS:          0
DTLB USEFUL LOAD PREFETCHES:          0 PREFETCH ISSUED TO LOWER LEVEL:          0  ACCURACY: -nan
DTLB TIMELY PREFETCHES:          0 LATE PREFETCHES: 0 DROPPED PREFETCHES: 0
DTLB PREFETCHES SAME FILL-ORIGIN LEVEL: 0 DIFFERENT FILL-ORIGIN LEVEL: 0
DTLB AVERAGE MISS LATENCY: 100.395 cycles
DTLB RQ	ACCESS:   14959307	FORWARD:          0	MERGED:     223882	TO_CACHE:   14735425

STLB TOTAL     ACCESS:     820980  HIT:     810717  MISS:      10263  HIT %:    98.7499  MISS %:    1.25009   MPKI: 0.20526
STLB LOAD TRANSLATION ACCESS:      14367  HIT:       4105  MISS:      10262  HIT %:    28.5724  MISS %:    71.4276   MPKI: 0.20524
STLB TRANSLATION FROM L1D PREFETCHER ACCESS:     806613  HIT:     806612  MISS:          1  HIT %:    99.9999  MISS %: 0.000123975   MPKI: 2e-05
STLB PREFETCH  REQUESTED:          0  ISSUED:          0  USEFUL:          1  USELESS:          0
STLB USEFUL LOAD PREFETCHES:          1 PREFETCH ISSUED TO LOWER LEVEL:          0  ACCURACY: inf
STLB TIMELY PREFETCHES:          1 LATE PREFETCHES: 0 DROPPED PREFETCHES: 0
STLB PREFETCHES SAME FILL-ORIGIN LEVEL: 0 DIFFERENT FILL-ORIGIN LEVEL: 0
STLB AVERAGE MISS LATENCY: 128.043 cycles
STLB RQ	ACCESS:    1246333	FORWARD:          0	MERGED:     425353	TO_CACHE:     820980

STLB Hit, L1D data hit: 0
STLB Hit, L2C data hit: 0
STLB Hit, LLC data hit: 0
STLB Hit, LLC data miss: 0
STLB STLB hints to L2: 0
L1D TOTAL     ACCESS:   16185853  HIT:   15258655  MISS:     927198  HIT %:    94.2716  MISS %:    5.72845   MPKI: 18.544
L1D LOAD      ACCESS:    9941499  HIT:    9902583  MISS:      38916  HIT %:    99.6085  MISS %:    0.39145   MPKI: 0.77832
L1D RFO       ACCESS:    5013982  HIT:    5013944  MISS:         38  HIT %:    99.9992  MISS %: 0.000757881   MPKI: 0.00076
L1D PREFETCH  ACCESS:    1230372  HIT:     342128  MISS:     888244  HIT %:    27.8069  MISS %:    72.1931   MPKI: 17.7649
L1D PREFETCH  REQUESTED:    2463996  ISSUED:    2463935  USEFUL:     767799  USELESS:     120407
L1D USEFUL LOAD PREFETCHES:     767799 PREFETCH ISSUED TO LOWER LEVEL:     890329  ACCURACY: 86.2377
L1D TIMELY PREFETCHES:     767799 LATE PREFETCHES: 244 DROPPED PREFETCHES: 0
L1D PREFETCHES SAME FILL-ORIGIN LEVEL: 890329 DIFFERENT FILL-ORIGIN LEVEL: 0
L1D AVERAGE MISS LATENCY: 16772.9 cycles
L1D RQ	ACCESS:   13120682	FORWARD:          0	MERGED:    3172683	TO_CACHE:    9945306
L1D WQ	ACCESS:    5633019	FORWARD:       2696	MERGED:     619018	TO_CACHE:    5014001
L1D PQ	ACCESS:    1231969	FORWARD:          0	MERGED:          0	TO_CACHE:    1231966

L1D UNIQUE REGIONS ACCESSED: 0
L1D REGIONS CONFLICTS: 0
L1D Cross Page Prefetch Requests: 0
L1D Same Page Prefetch Requests: 1429532
L1D ROI Sum of L1D PQ occupancy: 16559498
L1D PREFETCHES PUSHED FROM L2C: 0
L1I TOTAL     ACCESS:    8174501  HIT:    8174446  MISS:         55  HIT %:    99.9993  MISS %: 0.000672824   MPKI: 0.0011
L1I LOAD      ACCESS:    8174501  HIT:    8174446  MISS:         55  HIT %:    99.9993  MISS %: 0.000672824   MPKI: 0.0011
L1I PREFETCH  REQUESTED:          0  ISSUED:          0  USEFUL:          0  USELESS:          0
L1I USEFUL LOAD PREFETCHES:          0 PREFETCH ISSUED TO LOWER LEVEL:          0  ACCURACY: -nan
L1I TIMELY PREFETCHES:          0 LATE PREFETCHES: 0 DROPPED PREFETCHES: 0
L1I PREFETCHES SAME FILL-ORIGIN LEVEL: 0 DIFFERENT FILL-ORIGIN LEVEL: 0
L1I AVERAGE MISS LATENCY: 207.218 cycles
L1I RQ	ACCESS:   13812063	FORWARD:          0	MERGED:    5637558	TO_CACHE:    8174505

BTB TOTAL     ACCESS:    9209262  HIT:    9202771  MISS:       6491  HIT %:    99.9295  MISS %:  0.0704834   MPKI: 0.12982
BTB BRANCH_DIRECT_JUMP	ACCESS:    1247487  HIT:    1247450  MISS:         37
BTB BRANCH_INDIRECT	ACCESS:          0  HIT:          0  MISS:          0
BTB BRANCH_CONDITIONAL	ACCESS:    6708204  HIT:    6708123  MISS:         81
BTB BRANCH_DIRECT_CALL	ACCESS:     626785  HIT:     626768  MISS:         17
BTB BRANCH_INDIRECT_CALL	ACCESS:          0  HIT:          0  MISS:          0
BTB BRANCH_RETURN	ACCESS:     626786  HIT:     620430  MISS:       6356
BTB BRANCH_OTHER ACCESS:          0  HIT:          0  MISS:          0

L2C TOTAL     ACCESS:    4563422  HIT:    4084095  MISS:     479327  HIT %:    89.4963  MISS %:    10.5037   MPKI: 9.58654
L2C LOAD      ACCESS:      38727  HIT:      25584  MISS:      13143  HIT %:    66.0624  MISS %:    33.9376   MPKI: 0.26286
L2C DATA LOAD MPKI: 0.26176
L2C INSTRUCTION LOAD MPKI: 0.0011
L2C RFO       ACCESS:         38  HIT:         30  MISS:          8  HIT %:    78.9474  MISS %:    21.0526   MPKI: 0.00016
L2C PREFETCH  ACCESS:    4505595  HIT:    4043382  MISS:     462213  HIT %:    89.7414  MISS %:    10.2586   MPKI: 9.24426
L2C DATA PREFETCH MPKI: 9.24426
L2C INSTRUCTION PREFETCH MPKI: 0
L2C WRITEBACK ACCESS:       7981  HIT:       7978  MISS:          3  HIT %:    99.9624  MISS %:  0.0375893   MPKI: 6e-05
L2C LOAD TRANSLATION ACCESS:      11080  HIT:       7121  MISS:       3959  HIT %:     64.269  MISS %:     35.731   MPKI: 0.07918
L2C TRANSLATION FROM L1D PREFETCHER ACCESS:          1  HIT:          0  MISS:          1  HIT %:          0  MISS %:        100   MPKI: 2e-05
L2C PREFETCH  REQUESTED:    4007578  ISSUED:    4004465  USEFUL:       5269  USELESS:     456368
L2C USEFUL LOAD PREFETCHES:       5269 PREFETCH ISSUED TO LOWER LEVEL:     462250  ACCURACY: 1.13986
L2C TIMELY PREFETCHES:       5269 LATE PREFETCHES: 36 DROPPED PREFETCHES: 0
L2C PREFETCHES SAME FILL-ORIGIN LEVEL: 370819 DIFFERENT FILL-ORIGIN LEVEL: 0
L2C AVERAGE MISS LATENCY: 116.552 cycles
L2C RQ	ACCESS:      49846	FORWARD:          0	MERGED:          0	TO_CACHE:      49846
L2C WQ	ACCESS:       7981	FORWARD:          0	MERGED:          0	TO_CACHE:       7981
L2C PQ	ACCESS:    4892953	FORWARD:          0	MERGED:     382202	TO_CACHE:    4510751

L2C Instructions Evicting Data 55
L2C Translations Evicting Data 3934
L2C Data Evicting Data 471286
L2C Instructions Evicting Instructions 0
L2C Translations Evicting Instructions 0
L2C Data Evicting Instructions 55
L2C Instructions Evicting Translations 0
L2C Translations Evicting Translations 26
L2C Data Evicting Translations 3968
L2C Dense regions hint from L2: 0
PSCL5 TOTAL     ACCESS:      10263  HIT:      10263  MISS:          0  HIT %:        100  MISS %:          0   MPKI: 0
PSCL5 LOAD TRANSLATION ACCESS:      10262  HIT:      10262  MISS:          0  HIT %:        100  MISS %:          0   MPKI: 0
PSCL5 TRANSLATION FROM L1D PREFETCHER ACCESS:          1  HIT:          1  MISS:          0  HIT %:        100  MISS %:          0   MPKI: 0
PSCL5 PREFETCH  REQUESTED:          0  ISSUED:          0  USEFUL:          0  USELESS:          0
PSCL5 USEFUL LOAD PREFETCHES:          0 PREFETCH ISSUED TO LOWER LEVEL:          0  ACCURACY: -nan
PSCL5 TIMELY PREFETCHES:          0 LATE PREFETCHES: 0 DROPPED PREFETCHES: 0
PSCL5 PREFETCHES SAME FILL-ORIGIN LEVEL: 0 DIFFERENT FILL-ORIGIN LEVEL: 0

PSCL4 TOTAL     ACCESS:      10263  HIT:      10263  MISS:          0  HIT %:        100  MISS %:          0   MPKI: 0
PSCL4 LOAD TRANSLATION ACCESS:      10262  HIT:      10262  MISS:          0  HIT %:        100  MISS %:          0   MPKI: 0
PSCL4 TRANSLATION FROM L1D PREFETCHER ACCESS:          1  HIT:          1  MISS:          0  HIT %:        100  MISS %:          0   MPKI: 0
PSCL4 PREFETCH  REQUESTED:          0  ISSUED:          0  USEFUL:          0  USELESS:          0
PSCL4 USEFUL LOAD PREFETCHES:          0 PREFETCH ISSUED TO LOWER LEVEL:          0  ACCURACY: -nan
PSCL4 TIMELY PREFETCHES:          0 LATE PREFETCHES: 0 DROPPED PREFETCHES: 0
PSCL4 PREFETCHES SAME FILL-ORIGIN LEVEL: 0 DIFFERENT FILL-ORIGIN LEVEL: 0

PSCL3 TOTAL     ACCESS:      10263  HIT:      10262  MISS:          1  HIT %:    99.9903  MISS %: 0.00974374   MPKI: 2e-05
PSCL3 LOAD TRANSLATION ACCESS:      10262  HIT:      10261  MISS:          1  HIT %:    99.9903  MISS %: 0.00974469   MPKI: 2e-05
PSCL3 TRANSLATION FROM L1D PREFETCHER ACCESS:          1  HIT:          1  MISS:          0  HIT %:        100  MISS %:          0   MPKI: 0
PSCL3 PREFETCH  REQUESTED:          0  ISSUED:          0  USEFUL:          0  USELESS:          0
PSCL3 USEFUL LOAD PREFETCHES:          0 PREFETCH ISSUED TO LOWER LEVEL:          0  ACCURACY: -nan
PSCL3 TIMELY PREFETCHES:          0 LATE PREFETCHES: 0 DROPPED PREFETCHES: 0
PSCL3 PREFETCHES SAME FILL-ORIGIN LEVEL: 0 DIFFERENT FILL-ORIGIN LEVEL: 0

PSCL2 TOTAL     ACCESS:      10263  HIT:       9309  MISS:        954  HIT %:    90.7045  MISS %:    9.29553   MPKI: 0.01908
PSCL2 LOAD TRANSLATION ACCESS:      10262  HIT:       9308  MISS:        954  HIT %:    90.7036  MISS %:    9.29643   MPKI: 0.01908
PSCL2 TRANSLATION FROM L1D PREFETCHER ACCESS:          1  HIT:          1  MISS:          0  HIT %:        100  MISS %:          0   MPKI: 0
PSCL2 PREFETCH  REQUESTED:          0  ISSUED:          0  USEFUL:          0  USELESS:          0
PSCL2 USEFUL LOAD PREFETCHES:          0 PREFETCH ISSUED TO LOWER LEVEL:          0  ACCURACY: -nan
PSCL2 TIMELY PREFETCHES:          0 LATE PREFETCHES: 0 DROPPED PREFETCHES: 0
PSCL2 PREFETCHES SAME FILL-ORIGIN LEVEL: 0 DIFFERENT FILL-ORIGIN LEVEL: 0

LLC TOTAL     ACCESS:     482586  HIT:       7149  MISS:     475437  HIT %:    1.48139  MISS %:    98.5186   MPKI: 9.50874
LLC LOAD      ACCESS:      13107  HIT:        150  MISS:      12957  HIT %:    1.14443  MISS %:    98.8556   MPKI: 0.25914
LLC RFO       ACCESS:          8  HIT:          2  MISS:          6  HIT %:         25  MISS %:         75   MPKI: 0.00012
LLC PREFETCH  ACCESS:     462249  HIT:       4049  MISS:     458200  HIT %:   0.875935  MISS %:    99.1241   MPKI: 9.164
LLC WRITEBACK ACCESS:       3262  HIT:       2596  MISS:        666  HIT %:    79.5831  MISS %:    20.4169   MPKI: 0.01332
LLC LOAD TRANSLATION ACCESS:       3959  HIT:        352  MISS:       3607  HIT %:    8.89113  MISS %:    91.1089   MPKI: 0.07214
LLC TRANSLATION FROM L1D PREFETCHER ACCESS:          1  HIT:          0  MISS:          1  HIT %:          0  MISS %:        100   MPKI: 2e-05
LLC PREFETCH  REQUESTED:          0  ISSUED:          0  USEFUL:         86  USELESS:     457791
LLC USEFUL LOAD PREFETCHES:         86 PREFETCH ISSUED TO LOWER LEVEL:     458201  ACCURACY: 0.0187691
LLC TIMELY PREFETCHES:         86 LATE PREFETCHES: 0 DROPPED PREFETCHES: 0
LLC PREFETCHES SAME FILL-ORIGIN LEVEL: 0 DIFFERENT FILL-ORIGIN LEVEL: 0
LLC AVERAGE MISS LATENCY: 87.1122 cycles
LLC RQ	ACCESS:      17075	FORWARD:          0	MERGED:          0	TO_CACHE:      17075
LLC WQ	ACCESS:       3262	FORWARD:          0	MERGED:          0	TO_CACHE:       3262
LLC PQ	ACCESS:     462250	FORWARD:          0	MERGED:          0	TO_CACHE:     462250

LLC Dense regions hint to LLC: 0

RAW hits: 7380
Loads Generated: 13128062
Loads sent to L1D: 13120682
Stores Generated: 5633019
Stores sent to L1D: 5633019
Major fault: 0 Minor fault: 6201
Allocated PAGES: 6201

stream: 
stream:times selected: 4452290
stream:pref_filled: 967171
stream:pref_useful: 850978
stream:pref_late: 264
stream:misses: 2697
stream:misses_by_poll: 0

CS: 
CS:times selected: 3680729
CS:pref_filled: 5537
CS:pref_useful: 5111
CS:pref_late: 5
CS:misses: 20704
CS:misses_by_poll: 29

CPLX: 
CPLX:times selected: 770911
CPLX:pref_filled: 87266
CPLX:pref_useful: 63395
CPLX:pref_late: 45
CPLX:misses: 22570
CPLX:misses_by_poll: 239

NL_L1: 
NL:times selected: 680
NL:pref_filled: 48
NL:pref_useful: 42
NL:pref_late: 4
NL:misses: 15
NL:misses_by_poll: 0

total selections: 8904610
total_filled: 888244
total_useful: 767799
total_late: 332
total_polluted: 268
total_misses_after_warmup: 42723
conflicts: 4679
Degree Incremented Times: 118997
Degree Decremented Times: 0

L1 IP Table Write Accesses: 9931039
L1 IP Table Read Accesses: 9926360
L1 RST Write Accesses: 3695935
L1 RST Read Accesses: 7391870
L1 CSPT Write Accesses: 3695935
L1 CSPT Read Accesses: 5528343
L1 RR Filter Tag Write Accesses: 1232030
L1 RR Filter Tag Read Accesses: 733805997
L1 IP Table Tag Write Accesses: 9945306
L1 IP Table Tag Read Accesses: 9945306
L1 RST Tag Write Accesses: 0
L1 RST Tag Read Accesses: 33140114
L1 RR Filter Write Accesses: 0
L1 RR Filter Read Accesses: 31059466
test: 297463
L2 IP Table Read Accesses: 1599024
L2 IP Table Write Accesses: 1561431
L2 IP Table Tag Read Accesses: 800026
L2 IP Table Tag Write Accesses: 800026

DRAM Statistics
 CHANNEL 0
 RQ ROW_BUFFER_HIT:     415873  ROW_BUFFER_MISS:      58898
 DBUS_CONGESTED:          6
 WQ ROW_BUFFER_HIT:        641  ROW_BUFFER_MISS:       2660  FULL:          0

 AVG_CONGESTED_CYCLE: 3
 All warmup complete: 2
Channel 0 Bank busy for read cycles: 0
Channel 0 Bank busy for write cycles: 0
Channel 0
Rank 0
0banks busy for read cycles: 104915472
0banks busy for write cycles: 2708
1banks busy for read cycles: 16526037
1banks busy for write cycles: 421685
2banks busy for read cycles: 699241
2banks busy for write cycles: 39335
3banks busy for read cycles: 305654
3banks busy for write cycles: 9403
4banks busy for read cycles: 179038
4banks busy for write cycles: 4374
5banks busy for read cycles: 148559
5banks busy for write cycles: 2413
6banks busy for read cycles: 287355
6banks busy for write cycles: 479
7banks busy for read cycles: 770138
7banks busy for write cycles: 640
8banks busy for read cycles: 276646
8banks busy for write cycles: 300

CPU 0 Branch Prediction Accuracy: 94.7226% MPKI: 12.5192 Average ROB Occupancy at Mispredict: 59.1194
Branch types
NOT_BRANCH: 38138565 76.2771%
BRANCH_DIRECT_JUMP: 1247487 2.49497%
BRANCH_INDIRECT: 0 0%
BRANCH_CONDITIONAL: 9360076 18.7202%
BRANCH_DIRECT_CALL: 626785 1.25357%
BRANCH_INDIRECT_CALL: 0 0%
BRANCH_RETURN: 626786 1.25357%
BRANCH_OTHER: 0 0%

@sumon_overall_L1D    767799       244    120407    888244   2463935   2463996
@Sumon_Early_by_class_L1D    707750      4356     55653         4
@Sumon_Late_by_class_L1D       188         5        36         4

@Sumon_Early_by_cycle_L1D       656      5535     11840     12990     16745    650277     31214     20313      2893      3685     11595        56
@Sumon_Late_by_cycle_L1D       209        34         1         0         0         0         0         0         0         0         0         0
@Sumon_Early_stream_L1D       599      5275     11341     11975     13612    635178     13594       341      1067      3479     11287         2
@Sumon_Early_CS_L1D        26        91       162       419      2114      1068       138        76        83       115        64         0
@Sumon_Early_CPLX_L1D        29       160       314       592      1018     14030     17482     19896      1743        91       244        54
@Sumon_Late_stream_L1D       157        30         1         0         0         0         0         0         0         0         0         0
@Sumon_Late_CS_L1D         5         0         0         0         0         0         0         0         0         0         0         0
@Sumon_Late_CPLX_L1D        32         4         0         0         0         0         0         0         0         0         0         0
@sumon_overall_L2C      5269        36    456368    462214   4004465   4007578
@Sumon_Early_by_class_L2C      4903        59       295         0
@Sumon_Late_by_class_L2C        33         0         0         0

@Sumon_Early_by_cycle_L2C        25        43        47        20        21        85       286         7         6         5         9      4715
@Sumon_Late_by_cycle_L2C        18        17         1         0         0         0         0         0         0         0         0         0
@Sumon_Early_stream_L2C        18        43        47        19        20        81       286         7         6         5         9      4362
@Sumon_Early_CS_L2C         1         0         0         0         1         3         0         0         0         0         0        54
@Sumon_Early_CPLX_L2C         0         0         0         0         0         0         0         0         0         0         0       295
@Sumon_Late_stream_L2C        16        16         1         0         0         0         0         0         0         0         0         0
@Sumon_Late_CS_L2C         0         0         0         0         0         0         0         0         0         0         0         0
@Sumon_Late_CPLX_L2C         0         0         0         0         0         0         0         0         0         0         0         0
DRAM PAGES: 1048576
Allocated PAGES: 6201
