
*** ChampSim Multicore Out-of-Order Simulator ***

Warmup Instructions: 10000000
Simulation Instructions: 50000000
Number of CPUs: 1
LLC sets: 2048
LLC ways: 16
Off-chip DRAM Size: 4096 MB Channels: 1 Width: 64-bit Data Rate: 6400 MT/s
CPU 0 runs traces/SPEC2017/602.gcc_s-1850B.champsimtrace.xz
.xz
CPU 0 Bimodal branch predictor
BTB has LRU replacement policy
ITLB has LRU replacement policy
DTLB has LRU replacement policy
STLB has LRU replacement policy
L1I has LRU replacement policy
IP Table Entries: 256
L1D has LRU replacement policy
IP_Table L2 entries: 256
L2C has LRU replacement policy
Initialize DRRIP state for LLC
Heartbeat CPU 0 instructions: 10000002 cycles: 3263159 heartbeat IPC: 3.06452 cumulative IPC: 3.06452 (Simulation time: 0 hr 24 min 19 sec) 

Warmup complete CPU 0 instructions: 10000002 cycles: 3263159 (Simulation time: 0 hr 24 min 19 sec) 

Heartbeat CPU 0 instructions: 20000000 cycles: 33671509 heartbeat IPC: 0.328857 cumulative IPC: 0.328857 (Simulation time: 0 hr 45 min 23 sec) 
Heartbeat CPU 0 instructions: 30000000 cycles: 64076776 heartbeat IPC: 0.32889 cumulative IPC: 0.328874 (Simulation time: 1 hr 6 min 49 sec) 
Heartbeat CPU 0 instructions: 40000000 cycles: 94505985 heartbeat IPC: 0.328632 cumulative IPC: 0.328793 (Simulation time: 1 hr 27 min 50 sec) 
Heartbeat CPU 0 instructions: 50000000 cycles: 124884883 heartbeat IPC: 0.329176 cumulative IPC: 0.328889 (Simulation time: 1 hr 47 min 59 sec) 
Heartbeat CPU 0 instructions: 60000003 cycles: 155269552 heartbeat IPC: 0.329113 cumulative IPC: 0.328934 (Simulation time: 2 hr 2 min 25 sec) 
Finished CPU 0 instructions: 50000001 cycles: 152006393 cumulative IPC: 0.328934 (Simulation time: 2 hr 2 min 25 sec) 

ChampSim completed all CPUs

Region of Interest Statistics

CPU 0 cumulative IPC: 0.328934 instructions: 50000001 cycles: 152006393
ITLB TOTAL     ACCESS:    7742183  HIT:    7742183  MISS:          0  HIT %:        100  MISS %:          0   MPKI: 0
ITLB LOAD TRANSLATION ACCESS:    7742183  HIT:    7742183  MISS:          0  HIT %:        100  MISS %:          0   MPKI: 0
ITLB PREFETCH  REQUESTED:          0  ISSUED:          0  USEFUL:          0  USELESS:          0
ITLB USEFUL LOAD PREFETCHES:          0 PREFETCH ISSUED TO LOWER LEVEL:          0  ACCURACY: -nan
ITLB TIMELY PREFETCHES:          0 LATE PREFETCHES: 0 DROPPED PREFETCHES: 0
ITLB PREFETCHES SAME FILL-ORIGIN LEVEL: 0 DIFFERENT FILL-ORIGIN LEVEL: 0
ITLB AVERAGE MISS LATENCY: -nan cycles
ITLB RQ	ACCESS:    8571789	FORWARD:          0	MERGED:     829606	TO_CACHE:    7742183

DTLB TOTAL     ACCESS:   14942740  HIT:   14926348  MISS:      16392  HIT %:    99.8903  MISS %:   0.109699   MPKI: 0.32784
DTLB LOAD TRANSLATION ACCESS:   14942740  HIT:   14926348  MISS:      16392  HIT %:    99.8903  MISS %:   0.109699   MPKI: 0.32784
DTLB PREFETCH  REQUESTED:          0  ISSUED:          0  USEFUL:          0  USELESS:          0
DTLB USEFUL LOAD PREFETCHES:          0 PREFETCH ISSUED TO LOWER LEVEL:          0  ACCURACY: -nan
DTLB TIMELY PREFETCHES:          0 LATE PREFETCHES: 0 DROPPED PREFETCHES: 0
DTLB PREFETCHES SAME FILL-ORIGIN LEVEL: 0 DIFFERENT FILL-ORIGIN LEVEL: 0
DTLB AVERAGE MISS LATENCY: 142.615 cycles
DTLB RQ	ACCESS:   15258748	FORWARD:          0	MERGED:     315857	TO_CACHE:   14942891

STLB TOTAL     ACCESS:    1890901  HIT:    1875715  MISS:      15186  HIT %:    99.1969  MISS %:   0.803109   MPKI: 0.30372
STLB LOAD TRANSLATION ACCESS:      16392  HIT:       1206  MISS:      15186  HIT %:    7.35725  MISS %:    92.6428   MPKI: 0.30372
STLB TRANSLATION FROM L1D PREFETCHER ACCESS:    1874509  HIT:    1874509  MISS:          0  HIT %:        100  MISS %:          0   MPKI: 0
STLB PREFETCH  REQUESTED:          0  ISSUED:          0  USEFUL:          0  USELESS:          0
STLB USEFUL LOAD PREFETCHES:          0 PREFETCH ISSUED TO LOWER LEVEL:          0  ACCURACY: -nan
STLB TIMELY PREFETCHES:          0 LATE PREFETCHES: 0 DROPPED PREFETCHES: 0
STLB PREFETCHES SAME FILL-ORIGIN LEVEL: 0 DIFFERENT FILL-ORIGIN LEVEL: 0
STLB AVERAGE MISS LATENCY: 144.202 cycles
STLB RQ	ACCESS:    3618642	FORWARD:          0	MERGED:    1727741	TO_CACHE:    1890901

STLB Hit, L1D data hit: 0
STLB Hit, L2C data hit: 0
STLB Hit, LLC data hit: 0
STLB Hit, LLC data miss: 0
STLB STLB hints to L2: 0
L1D TOTAL     ACCESS:   18848261  HIT:   17447490  MISS:    1400771  HIT %:    92.5682  MISS %:    7.43183   MPKI: 28.0154
L1D LOAD      ACCESS:   10938492  HIT:   10832250  MISS:     106242  HIT %:    99.0287  MISS %:   0.971267   MPKI: 2.12484
L1D RFO       ACCESS:    4315586  HIT:    4315404  MISS:        182  HIT %:    99.9958  MISS %: 0.00421727   MPKI: 0.00364
L1D PREFETCH  ACCESS:    3594183  HIT:    2299836  MISS:    1294347  HIT %:    63.9877  MISS %:    36.0123   MPKI: 25.8869
L1D PREFETCH  REQUESTED:    7204516  ISSUED:    7204500  USEFUL:    1071717  USELESS:     222630
L1D USEFUL LOAD PREFETCHES:    1071717 PREFETCH ISSUED TO LOWER LEVEL:    1301387  ACCURACY: 82.3519
L1D TIMELY PREFETCHES:    1071717 LATE PREFETCHES: 6606 DROPPED PREFETCHES: 0
L1D PREFETCHES SAME FILL-ORIGIN LEVEL: 1301387 DIFFERENT FILL-ORIGIN LEVEL: 0
L1D AVERAGE MISS LATENCY: 375708 cycles
L1D RQ	ACCESS:   13897925	FORWARD:          0	MERGED:    2954763	TO_CACHE:   10943162
L1D WQ	ACCESS:    4852413	FORWARD:          0	MERGED:     536827	TO_CACHE:    4315586
L1D PQ	ACCESS:    3602250	FORWARD:          0	MERGED:          0	TO_CACHE:    3602250

L1D UNIQUE REGIONS ACCESSED: 0
L1D REGIONS CONFLICTS: 0
L1D Cross Page Prefetch Requests: 0
L1D Same Page Prefetch Requests: 4230508
L1D ROI Sum of L1D PQ occupancy: 48593856
L1D PREFETCHES PUSHED FROM L2C: 0
L1I TOTAL     ACCESS:    8571788  HIT:    8571788  MISS:          0  HIT %:        100  MISS %:          0   MPKI: 0
L1I LOAD      ACCESS:    8571788  HIT:    8571788  MISS:          0  HIT %:        100  MISS %:          0   MPKI: 0
L1I PREFETCH  REQUESTED:          0  ISSUED:          0  USEFUL:          0  USELESS:          0
L1I USEFUL LOAD PREFETCHES:          0 PREFETCH ISSUED TO LOWER LEVEL:          0  ACCURACY: -nan
L1I TIMELY PREFETCHES:          0 LATE PREFETCHES: 0 DROPPED PREFETCHES: 0
L1I PREFETCHES SAME FILL-ORIGIN LEVEL: 0 DIFFERENT FILL-ORIGIN LEVEL: 0
L1I AVERAGE MISS LATENCY: -nan cycles
L1I RQ	ACCESS:   13331255	FORWARD:          0	MERGED:    4759466	TO_CACHE:    8571789

BTB TOTAL     ACCESS:    8191456  HIT:    8191427  MISS:         29  HIT %:    99.9996  MISS %: 0.000354027   MPKI: 0.00058
BTB BRANCH_DIRECT_JUMP	ACCESS:    1079511  HIT:    1079502  MISS:          9
BTB BRANCH_INDIRECT	ACCESS:          0  HIT:          0  MISS:          0
BTB BRANCH_CONDITIONAL	ACCESS:    6031849  HIT:    6031835  MISS:         14
BTB BRANCH_DIRECT_CALL	ACCESS:     540048  HIT:     540045  MISS:          3
BTB BRANCH_INDIRECT_CALL	ACCESS:          0  HIT:          0  MISS:          0
BTB BRANCH_RETURN	ACCESS:     540048  HIT:     540045  MISS:          3
BTB BRANCH_OTHER ACCESS:          0  HIT:          0  MISS:          0

L2C TOTAL     ACCESS:    4482734  HIT:    3551653  MISS:     931081  HIT %:    79.2296  MISS %:    20.7704   MPKI: 18.6216
L2C LOAD      ACCESS:      99636  HIT:      82539  MISS:      17097  HIT %:    82.8405  MISS %:    17.1595   MPKI: 0.34194
L2C DATA LOAD MPKI: 0.34194
L2C INSTRUCTION LOAD MPKI: 0
L2C RFO       ACCESS:        181  HIT:        175  MISS:          6  HIT %:    96.6851  MISS %:    3.31492   MPKI: 0.00012
L2C PREFETCH  ACCESS:    4364442  HIT:    3453142  MISS:     911300  HIT %:    79.1199  MISS %:    20.8801   MPKI: 18.226
L2C DATA PREFETCH MPKI: 18.226
L2C INSTRUCTION PREFETCH MPKI: 0
L2C WRITEBACK ACCESS:       3224  HIT:       3224  MISS:          0  HIT %:        100  MISS %:          0   MPKI: 0
L2C LOAD TRANSLATION ACCESS:      15251  HIT:      12573  MISS:       2678  HIT %:    82.4405  MISS %:    17.5595   MPKI: 0.05356
L2C PREFETCH  REQUESTED:    4319637  ISSUED:    4319528  USEFUL:       7357  USELESS:     903926
L2C USEFUL LOAD PREFETCHES:       7357 PREFETCH ISSUED TO LOWER LEVEL:     911343  ACCURACY: 0.80727
L2C TIMELY PREFETCHES:       7357 LATE PREFETCHES: 43 DROPPED PREFETCHES: 0
L2C PREFETCHES SAME FILL-ORIGIN LEVEL: 684380 DIFFERENT FILL-ORIGIN LEVEL: 0
L2C AVERAGE MISS LATENCY: 108.147 cycles
L2C RQ	ACCESS:     115068	FORWARD:          0	MERGED:          0	TO_CACHE:     115068
L2C WQ	ACCESS:       3224	FORWARD:          0	MERGED:          0	TO_CACHE:       3224
L2C PQ	ACCESS:    5620478	FORWARD:          0	MERGED:     982325	TO_CACHE:    4638153

L2C Instructions Evicting Data 0
L2C Translations Evicting Data 2672
L2C Data Evicting Data 925723
L2C Instructions Evicting Instructions 0
L2C Translations Evicting Instructions 0
L2C Data Evicting Instructions 0
L2C Instructions Evicting Translations 0
L2C Translations Evicting Translations 6
L2C Data Evicting Translations 2680
L2C Dense regions hint from L2: 0
PSCL5 TOTAL     ACCESS:      15186  HIT:      15186  MISS:          0  HIT %:        100  MISS %:          0   MPKI: 0
PSCL5 LOAD TRANSLATION ACCESS:      15186  HIT:      15186  MISS:          0  HIT %:        100  MISS %:          0   MPKI: 0
PSCL5 PREFETCH  REQUESTED:          0  ISSUED:          0  USEFUL:          0  USELESS:          0
PSCL5 USEFUL LOAD PREFETCHES:          0 PREFETCH ISSUED TO LOWER LEVEL:          0  ACCURACY: -nan
PSCL5 TIMELY PREFETCHES:          0 LATE PREFETCHES: 0 DROPPED PREFETCHES: 0
PSCL5 PREFETCHES SAME FILL-ORIGIN LEVEL: 0 DIFFERENT FILL-ORIGIN LEVEL: 0

PSCL4 TOTAL     ACCESS:      15186  HIT:      15186  MISS:          0  HIT %:        100  MISS %:          0   MPKI: 0
PSCL4 LOAD TRANSLATION ACCESS:      15186  HIT:      15186  MISS:          0  HIT %:        100  MISS %:          0   MPKI: 0
PSCL4 PREFETCH  REQUESTED:          0  ISSUED:          0  USEFUL:          0  USELESS:          0
PSCL4 USEFUL LOAD PREFETCHES:          0 PREFETCH ISSUED TO LOWER LEVEL:          0  ACCURACY: -nan
PSCL4 TIMELY PREFETCHES:          0 LATE PREFETCHES: 0 DROPPED PREFETCHES: 0
PSCL4 PREFETCHES SAME FILL-ORIGIN LEVEL: 0 DIFFERENT FILL-ORIGIN LEVEL: 0

PSCL3 TOTAL     ACCESS:      15186  HIT:      15186  MISS:          0  HIT %:        100  MISS %:          0   MPKI: 0
PSCL3 LOAD TRANSLATION ACCESS:      15186  HIT:      15186  MISS:          0  HIT %:        100  MISS %:          0   MPKI: 0
PSCL3 PREFETCH  REQUESTED:          0  ISSUED:          0  USEFUL:          0  USELESS:          0
PSCL3 USEFUL LOAD PREFETCHES:          0 PREFETCH ISSUED TO LOWER LEVEL:          0  ACCURACY: -nan
PSCL3 TIMELY PREFETCHES:          0 LATE PREFETCHES: 0 DROPPED PREFETCHES: 0
PSCL3 PREFETCHES SAME FILL-ORIGIN LEVEL: 0 DIFFERENT FILL-ORIGIN LEVEL: 0

PSCL2 TOTAL     ACCESS:      15186  HIT:      15015  MISS:        171  HIT %:     98.874  MISS %:    1.12604   MPKI: 0.00342
PSCL2 LOAD TRANSLATION ACCESS:      15186  HIT:      15015  MISS:        171  HIT %:     98.874  MISS %:    1.12604   MPKI: 0.00342
PSCL2 PREFETCH  REQUESTED:          0  ISSUED:          0  USEFUL:          0  USELESS:          0
PSCL2 USEFUL LOAD PREFETCHES:          0 PREFETCH ISSUED TO LOWER LEVEL:          0  ACCURACY: -nan
PSCL2 TIMELY PREFETCHES:          0 LATE PREFETCHES: 0 DROPPED PREFETCHES: 0
PSCL2 PREFETCHES SAME FILL-ORIGIN LEVEL: 0 DIFFERENT FILL-ORIGIN LEVEL: 0

LLC TOTAL     ACCESS:     932342  HIT:       7353  MISS:     924989  HIT %:   0.788659  MISS %:    99.2113   MPKI: 18.4998
LLC LOAD      ACCESS:      17054  HIT:        192  MISS:      16862  HIT %:    1.12584  MISS %:    98.8742   MPKI: 0.33724
LLC RFO       ACCESS:          6  HIT:          0  MISS:          6  HIT %:          0  MISS %:        100   MPKI: 0.00012
LLC PREFETCH  ACCESS:     911343  HIT:       5718  MISS:     905625  HIT %:   0.627426  MISS %:    99.3726   MPKI: 18.1125
LLC WRITEBACK ACCESS:       1261  HIT:       1248  MISS:         13  HIT %:    98.9691  MISS %:    1.03093   MPKI: 0.00026
LLC LOAD TRANSLATION ACCESS:       2678  HIT:        195  MISS:       2483  HIT %:    7.28155  MISS %:    92.7184   MPKI: 0.04966
LLC PREFETCH  REQUESTED:          0  ISSUED:          0  USEFUL:         78  USELESS:     905504
LLC USEFUL LOAD PREFETCHES:         78 PREFETCH ISSUED TO LOWER LEVEL:     905625  ACCURACY: 0.00861284
LLC TIMELY PREFETCHES:         78 LATE PREFETCHES: 0 DROPPED PREFETCHES: 0
LLC PREFETCHES SAME FILL-ORIGIN LEVEL: 0 DIFFERENT FILL-ORIGIN LEVEL: 0
LLC AVERAGE MISS LATENCY: 78.6114 cycles
LLC RQ	ACCESS:      19738	FORWARD:          0	MERGED:          0	TO_CACHE:      19738
LLC WQ	ACCESS:       1261	FORWARD:          0	MERGED:          0	TO_CACHE:       1261
LLC PQ	ACCESS:     911343	FORWARD:          0	MERGED:          0	TO_CACHE:     911343

LLC Dense regions hint to LLC: 0

RAW hits: 0
Loads Generated: 13897925
Loads sent to L1D: 13897925
Stores Generated: 4852411
Stores sent to L1D: 4852413
Major fault: 0 Minor fault: 18384
Allocated PAGES: 18384

stream: 
stream:times selected: 6544245
stream:pref_filled: 1138870
stream:pref_useful: 943714
stream:pref_late: 2411
stream:misses: 9368
stream:misses_by_poll: 0

CS: 
CS:times selected: 2469217
CS:pref_filled: 100529
CS:pref_useful: 97750
CS:pref_late: 3648
CS:misses: 39169
CS:misses_by_poll: 726

CPLX: 
CPLX:times selected: 4069863
CPLX:pref_filled: 311106
CPLX:pref_useful: 243374
CPLX:pref_late: 1161
CPLX:misses: 67249
CPLX:misses_by_poll: 2011

NL_L1: 
NL:times selected: 30542
NL:pref_filled: 440
NL:pref_useful: 361
NL:pref_late: 19
NL:misses: 1167
NL:misses_by_poll: 0

total selections: 13113867
total_filled: 1294347
total_useful: 1071717
total_late: 7428
total_polluted: 2737
total_misses_after_warmup: 110912
conflicts: 0
Degree Incremented Times: 174126
Degree Decremented Times: 0

L1 IP Table Write Accesses: 10938330
L1 IP Table Read Accesses: 10938330
L1 RST Write Accesses: 5522292
L1 RST Read Accesses: 11044584
L1 CSPT Write Accesses: 5522292
L1 CSPT Read Accesses: 15038510
L1 RR Filter Tag Write Accesses: 3602266
L1 RR Filter Tag Read Accesses: 864647333
L1 IP Table Tag Write Accesses: 10943162
L1 IP Table Tag Read Accesses: 10943162
L1 RST Tag Write Accesses: 0
L1 RST Tag Read Accesses: 49334916
L1 RR Filter Write Accesses: 0
L1 RR Filter Read Accesses: 39461906
test: 1099174
L2 IP Table Read Accesses: 2216383
L2 IP Table Write Accesses: 2116748
L2 IP Table Tag Read Accesses: 1108192
L2 IP Table Tag Write Accesses: 1108192

DRAM Statistics
 CHANNEL 0
 RQ ROW_BUFFER_HIT:     857532  ROW_BUFFER_MISS:      67444
 DBUS_CONGESTED:         13
 WQ ROW_BUFFER_HIT:        215  ROW_BUFFER_MISS:       1039  FULL:          0

 AVG_CONGESTED_CYCLE: 4
 All warmup complete: 2
Channel 0 Bank busy for read cycles: 0
Channel 0 Bank busy for write cycles: 0
Channel 0
Rank 0
0banks busy for read cycles: 123630941
0banks busy for write cycles: 858
1banks busy for read cycles: 17053717
1banks busy for write cycles: 121524
2banks busy for read cycles: 5938755
2banks busy for write cycles: 25033
3banks busy for read cycles: 2118121
3banks busy for write cycles: 8836
4banks busy for read cycles: 913224
4banks busy for write cycles: 2754
5banks busy for read cycles: 508643
5banks busy for write cycles: 1443
6banks busy for read cycles: 471924
6banks busy for write cycles: 638
7banks busy for read cycles: 992439
7banks busy for write cycles: 749
8banks busy for read cycles: 216645
8banks busy for write cycles: 150

CPU 0 Branch Prediction Accuracy: 92.2655% MPKI: 19.8309 Average ROB Occupancy at Mispredict: 30.5939
Branch types
NOT_BRANCH: 37179936 74.3599%
BRANCH_DIRECT_JUMP: 1079511 2.15902%
BRANCH_INDIRECT: 0 0%
BRANCH_CONDITIONAL: 10660171 21.3203%
BRANCH_DIRECT_CALL: 540048 1.0801%
BRANCH_INDIRECT_CALL: 0 0%
BRANCH_RETURN: 540048 1.0801%
BRANCH_OTHER: 0 0%

@sumon_overall_L1D   1071717      6606    222630   1294347   7204500   7204516
@Sumon_Early_by_class_L1D    776351     80378    214681        18
@Sumon_Late_by_class_L1D      1790      3485      1147        18

@Sumon_Early_by_cycle_L1D     47774     94406     82395    123474    116806    410737     81229     36681     35560     39135      3014       506
@Sumon_Late_by_cycle_L1D      6531        75         0         0         0         0         0         0         0         0         0         0
@Sumon_Early_stream_L1D     26644     83623     60493     96541     92358    329046     22824     10963     22757     30791       311         0
@Sumon_Early_CS_L1D     18335      6532     13631     15850     11090      6930       268      2256      4048      1436         2         0
@Sumon_Early_CPLX_L1D      2759      4143      8174     11080     13357     74760     58132     23459      8751      6859      2701       506
@Sumon_Late_stream_L1D      1776        14         0         0         0         0         0         0         0         0         0         0
@Sumon_Late_CS_L1D      3429        56         0         0         0         0         0         0         0         0         0         0
@Sumon_Late_CPLX_L1D      1143         4         0         0         0         0         0         0         0         0         0         0
@sumon_overall_L2C      7357        43    903926    911300   4319528   4319637
@Sumon_Early_by_class_L2C      6732       323       298         0
@Sumon_Late_by_class_L2C        24        15         0         0

@Sumon_Early_by_cycle_L2C       370       278       303       316       251       879       173         2         0         3      1506      3276
@Sumon_Late_by_cycle_L2C        43         0         0         0         0         0         0         0         0         0         0         0
@Sumon_Early_stream_L2C       305       264       276       284       226       851       170         2         0         3      1371      2980
@Sumon_Early_CS_L2C        65        14        27        32        25        28         3         0         0         0        44        85
@Sumon_Early_CPLX_L2C         0         0         0         0         0         0         0         0         0         0        89       209
@Sumon_Late_stream_L2C        24         0         0         0         0         0         0         0         0         0         0         0
@Sumon_Late_CS_L2C        15         0         0         0         0         0         0         0         0         0         0         0
@Sumon_Late_CPLX_L2C         0         0         0         0         0         0         0         0         0         0         0         0
DRAM PAGES: 1048576
Allocated PAGES: 18384
