
*** ChampSim Multicore Out-of-Order Simulator ***

Warmup Instructions: 10000000
Simulation Instructions: 50000000
Number of CPUs: 1
LLC sets: 2048
LLC ways: 16
Off-chip DRAM Size: 4096 MB Channels: 1 Width: 64-bit Data Rate: 6400 MT/s
CPU 0 runs traces/SPEC2017/603.bwaves_s-891B.champsimtrace.xz
.xz
CPU 0 Bimodal branch predictor
BTB has LRU replacement policy
ITLB has LRU replacement policy
DTLB has LRU replacement policy
STLB has LRU replacement policy
L1I has LRU replacement policy
IP Table Entries: 256
L1D has LRU replacement policy
IP_Table L2 entries: 256
L2C has LRU replacement policy
Initialize DRRIP state for LLC
Heartbeat CPU 0 instructions: 10000003 cycles: 2716412 heartbeat IPC: 3.68133 cumulative IPC: 3.68133 (Simulation time: 0 hr 12 min 24 sec) 

Warmup complete CPU 0 instructions: 10000003 cycles: 2716412 (Simulation time: 0 hr 12 min 24 sec) 

Heartbeat CPU 0 instructions: 20000000 cycles: 17316675 heartbeat IPC: 0.684919 cumulative IPC: 0.684919 (Simulation time: 0 hr 29 min 44 sec) 
Heartbeat CPU 0 instructions: 30000000 cycles: 31923025 heartbeat IPC: 0.684634 cumulative IPC: 0.684776 (Simulation time: 0 hr 47 min 31 sec) 
Heartbeat CPU 0 instructions: 40000001 cycles: 46530224 heartbeat IPC: 0.684594 cumulative IPC: 0.684716 (Simulation time: 1 hr 5 min 23 sec) 
Heartbeat CPU 0 instructions: 50000000 cycles: 62661262 heartbeat IPC: 0.619923 cumulative IPC: 0.66728 (Simulation time: 1 hr 20 min 12 sec) 
Heartbeat CPU 0 instructions: 60000001 cycles: 79400160 heartbeat IPC: 0.597411 cumulative IPC: 0.652029 (Simulation time: 1 hr 33 min 40 sec) 
Finished CPU 0 instructions: 50000002 cycles: 76683751 cumulative IPC: 0.652029 (Simulation time: 1 hr 33 min 40 sec) 

ChampSim completed all CPUs

Region of Interest Statistics

CPU 0 cumulative IPC: 0.652029 instructions: 50000002 cycles: 76683751
ITLB TOTAL     ACCESS:    7209159  HIT:    7209159  MISS:          0  HIT %:        100  MISS %:          0   MPKI: 0
ITLB LOAD TRANSLATION ACCESS:    7209159  HIT:    7209159  MISS:          0  HIT %:        100  MISS %:          0   MPKI: 0
ITLB PREFETCH  REQUESTED:          0  ISSUED:          0  USEFUL:          0  USELESS:          0
ITLB USEFUL LOAD PREFETCHES:          0 PREFETCH ISSUED TO LOWER LEVEL:          0  ACCURACY: -nan
ITLB TIMELY PREFETCHES:          0 LATE PREFETCHES: 0 DROPPED PREFETCHES: 0
ITLB PREFETCHES SAME FILL-ORIGIN LEVEL: 0 DIFFERENT FILL-ORIGIN LEVEL: 0
ITLB AVERAGE MISS LATENCY: -nan cycles
ITLB RQ	ACCESS:    9708827	FORWARD:          0	MERGED:    2499668	TO_CACHE:    7209159

DTLB TOTAL     ACCESS:    8603364  HIT:    8585192  MISS:      18172  HIT %:    99.7888  MISS %:    0.21122   MPKI: 0.36344
DTLB LOAD TRANSLATION ACCESS:    8603364  HIT:    8585192  MISS:      18172  HIT %:    99.7888  MISS %:    0.21122   MPKI: 0.36344
DTLB PREFETCH  REQUESTED:          0  ISSUED:          0  USEFUL:          0  USELESS:          0
DTLB USEFUL LOAD PREFETCHES:          0 PREFETCH ISSUED TO LOWER LEVEL:          0  ACCURACY: -nan
DTLB TIMELY PREFETCHES:          0 LATE PREFETCHES: 0 DROPPED PREFETCHES: 0
DTLB PREFETCHES SAME FILL-ORIGIN LEVEL: 0 DIFFERENT FILL-ORIGIN LEVEL: 0
DTLB AVERAGE MISS LATENCY: 283.469 cycles
DTLB RQ	ACCESS:    9089636	FORWARD:          0	MERGED:     485471	TO_CACHE:    8604165

STLB TOTAL     ACCESS:    1084285  HIT:    1066169  MISS:      18116  HIT %:    98.3292  MISS %:    1.67078   MPKI: 0.36232
STLB LOAD TRANSLATION ACCESS:      18172  HIT:         56  MISS:      18116  HIT %:   0.308166  MISS %:    99.6918   MPKI: 0.36232
STLB TRANSLATION FROM L1D PREFETCHER ACCESS:    1066113  HIT:    1066113  MISS:          0  HIT %:        100  MISS %:          0   MPKI: 0
STLB PREFETCH  REQUESTED:          0  ISSUED:          0  USEFUL:          0  USELESS:          0
STLB USEFUL LOAD PREFETCHES:          0 PREFETCH ISSUED TO LOWER LEVEL:          0  ACCURACY: -nan
STLB TIMELY PREFETCHES:          0 LATE PREFETCHES: 0 DROPPED PREFETCHES: 0
STLB PREFETCHES SAME FILL-ORIGIN LEVEL: 0 DIFFERENT FILL-ORIGIN LEVEL: 0
STLB AVERAGE MISS LATENCY: 270.227 cycles
STLB RQ	ACCESS:    1199193	FORWARD:          0	MERGED:     114909	TO_CACHE:    1084284

STLB Hit, L1D data hit: 0
STLB Hit, L2C data hit: 0
STLB Hit, LLC data hit: 0
STLB Hit, LLC data miss: 0
STLB STLB hints to L2: 0
L1D TOTAL     ACCESS:   10237548  HIT:    9078044  MISS:    1159504  HIT %:     88.674  MISS %:     11.326   MPKI: 23.1901
L1D LOAD      ACCESS:    6475573  HIT:    6452472  MISS:      23101  HIT %:    99.6433  MISS %:   0.356741   MPKI: 0.46202
L1D RFO       ACCESS:    2586017  HIT:    2586016  MISS:          1  HIT %:        100  MISS %: 3.86695e-05   MPKI: 2e-05
L1D PREFETCH  ACCESS:    1175958  HIT:      39556  MISS:    1136402  HIT %:    3.36373  MISS %:    96.6363   MPKI: 22.728
L1D PREFETCH  REQUESTED:    2362042  ISSUED:    2362042  USEFUL:    1136391  USELESS:         28
L1D USEFUL LOAD PREFETCHES:    1136391 PREFETCH ISSUED TO LOWER LEVEL:    1140347  ACCURACY: 99.6531
L1D TIMELY PREFETCHES:    1136391 LATE PREFETCHES: 3918 DROPPED PREFETCHES: 0
L1D PREFETCHES SAME FILL-ORIGIN LEVEL: 1140347 DIFFERENT FILL-ORIGIN LEVEL: 0
L1D AVERAGE MISS LATENCY: 199606 cycles
L1D RQ	ACCESS:    7957258	FORWARD:          0	MERGED:    1453477	TO_CACHE:    6503619
L1D WQ	ACCESS:    2590179	FORWARD:        162	MERGED:       4162	TO_CACHE:    2586017
L1D PQ	ACCESS:    1181021	FORWARD:          0	MERGED:          0	TO_CACHE:    1181021

L1D UNIQUE REGIONS ACCESSED: 0
L1D REGIONS CONFLICTS: 0
L1D Cross Page Prefetch Requests: 0
L1D Same Page Prefetch Requests: 1455814
L1D ROI Sum of L1D PQ occupancy: 17693979
L1D PREFETCHES PUSHED FROM L2C: 0
L1I TOTAL     ACCESS:    9708824  HIT:    9708820  MISS:          4  HIT %:        100  MISS %: 4.11996e-05   MPKI: 8e-05
L1I LOAD      ACCESS:    9708824  HIT:    9708820  MISS:          4  HIT %:        100  MISS %: 4.11996e-05   MPKI: 8e-05
L1I PREFETCH  REQUESTED:          0  ISSUED:          0  USEFUL:          0  USELESS:          0
L1I USEFUL LOAD PREFETCHES:          0 PREFETCH ISSUED TO LOWER LEVEL:          0  ACCURACY: -nan
L1I TIMELY PREFETCHES:          0 LATE PREFETCHES: 0 DROPPED PREFETCHES: 0
L1I PREFETCHES SAME FILL-ORIGIN LEVEL: 0 DIFFERENT FILL-ORIGIN LEVEL: 0
L1I AVERAGE MISS LATENCY: 279.25 cycles
L1I RQ	ACCESS:   13133076	FORWARD:          0	MERGED:    3424249	TO_CACHE:    9708827

BTB TOTAL     ACCESS:    3628114  HIT:    3628106  MISS:          8  HIT %:    99.9998  MISS %:  0.0002205   MPKI: 0.00016
BTB BRANCH_DIRECT_JUMP	ACCESS:          0  HIT:          0  MISS:          0
BTB BRANCH_INDIRECT	ACCESS:          0  HIT:          0  MISS:          0
BTB BRANCH_CONDITIONAL	ACCESS:    3628114  HIT:    3628106  MISS:          8
BTB BRANCH_DIRECT_CALL	ACCESS:          0  HIT:          0  MISS:          0
BTB BRANCH_INDIRECT_CALL	ACCESS:          0  HIT:          0  MISS:          0
BTB BRANCH_RETURN	ACCESS:          0  HIT:          0  MISS:          0
BTB BRANCH_OTHER ACCESS:          0  HIT:          0  MISS:          0

L2C TOTAL     ACCESS:    5784349  HIT:    4622523  MISS:    1161826  HIT %:    79.9143  MISS %:    20.0857   MPKI: 23.2365
L2C LOAD      ACCESS:      19187  HIT:          0  MISS:      19187  HIT %:          0  MISS %:        100   MPKI: 0.38374
L2C DATA LOAD MPKI: 0.38366
L2C INSTRUCTION LOAD MPKI: 8e-05
L2C RFO       ACCESS:          1  HIT:          0  MISS:          1  HIT %:          0  MISS %:        100   MPKI: 2e-05
L2C PREFETCH  ACCESS:    5299672  HIT:    4159337  MISS:    1140335  HIT %:    78.4829  MISS %:    21.5171   MPKI: 22.8067
L2C DATA PREFETCH MPKI: 22.8067
L2C INSTRUCTION PREFETCH MPKI: 0
L2C WRITEBACK ACCESS:     447373  HIT:     447371  MISS:          2  HIT %:    99.9996  MISS %: 0.000447054   MPKI: 4e-05
L2C LOAD TRANSLATION ACCESS:      18116  HIT:      15815  MISS:       2301  HIT %:    87.2985  MISS %:    12.7015   MPKI: 0.04602
L2C PREFETCH  REQUESTED:    5763543  ISSUED:    4700600  USEFUL:          0  USELESS:    1140319
L2C USEFUL LOAD PREFETCHES:          0 PREFETCH ISSUED TO LOWER LEVEL:    1140336  ACCURACY: 0
L2C TIMELY PREFETCHES:          0 LATE PREFETCHES: 0 DROPPED PREFETCHES: 0
L2C PREFETCHES SAME FILL-ORIGIN LEVEL: 1038516 DIFFERENT FILL-ORIGIN LEVEL: 0
L2C AVERAGE MISS LATENCY: 206.79 cycles
L2C RQ	ACCESS:      37304	FORWARD:          0	MERGED:          0	TO_CACHE:      37304
L2C WQ	ACCESS:     447373	FORWARD:          0	MERGED:          0	TO_CACHE:     447373
L2C PQ	ACCESS:    5840920	FORWARD:          0	MERGED:     100566	TO_CACHE:    5740354

L2C Instructions Evicting Data 4
L2C Translations Evicting Data 2301
L2C Data Evicting Data 1157208
L2C Instructions Evicting Instructions 0
L2C Translations Evicting Instructions 0
L2C Data Evicting Instructions 4
L2C Instructions Evicting Translations 0
L2C Translations Evicting Translations 0
L2C Data Evicting Translations 2307
L2C Dense regions hint from L2: 0
PSCL5 TOTAL     ACCESS:      18116  HIT:      18116  MISS:          0  HIT %:        100  MISS %:          0   MPKI: 0
PSCL5 LOAD TRANSLATION ACCESS:      18116  HIT:      18116  MISS:          0  HIT %:        100  MISS %:          0   MPKI: 0
PSCL5 PREFETCH  REQUESTED:          0  ISSUED:          0  USEFUL:          0  USELESS:          0
PSCL5 USEFUL LOAD PREFETCHES:          0 PREFETCH ISSUED TO LOWER LEVEL:          0  ACCURACY: -nan
PSCL5 TIMELY PREFETCHES:          0 LATE PREFETCHES: 0 DROPPED PREFETCHES: 0
PSCL5 PREFETCHES SAME FILL-ORIGIN LEVEL: 0 DIFFERENT FILL-ORIGIN LEVEL: 0

PSCL4 TOTAL     ACCESS:      18116  HIT:      18116  MISS:          0  HIT %:        100  MISS %:          0   MPKI: 0
PSCL4 LOAD TRANSLATION ACCESS:      18116  HIT:      18116  MISS:          0  HIT %:        100  MISS %:          0   MPKI: 0
PSCL4 PREFETCH  REQUESTED:          0  ISSUED:          0  USEFUL:          0  USELESS:          0
PSCL4 USEFUL LOAD PREFETCHES:          0 PREFETCH ISSUED TO LOWER LEVEL:          0  ACCURACY: -nan
PSCL4 TIMELY PREFETCHES:          0 LATE PREFETCHES: 0 DROPPED PREFETCHES: 0
PSCL4 PREFETCHES SAME FILL-ORIGIN LEVEL: 0 DIFFERENT FILL-ORIGIN LEVEL: 0

PSCL3 TOTAL     ACCESS:      18116  HIT:      18116  MISS:          0  HIT %:        100  MISS %:          0   MPKI: 0
PSCL3 LOAD TRANSLATION ACCESS:      18116  HIT:      18116  MISS:          0  HIT %:        100  MISS %:          0   MPKI: 0
PSCL3 PREFETCH  REQUESTED:          0  ISSUED:          0  USEFUL:          0  USELESS:          0
PSCL3 USEFUL LOAD PREFETCHES:          0 PREFETCH ISSUED TO LOWER LEVEL:          0  ACCURACY: -nan
PSCL3 TIMELY PREFETCHES:          0 LATE PREFETCHES: 0 DROPPED PREFETCHES: 0
PSCL3 PREFETCHES SAME FILL-ORIGIN LEVEL: 0 DIFFERENT FILL-ORIGIN LEVEL: 0

PSCL2 TOTAL     ACCESS:      18116  HIT:      18080  MISS:         36  HIT %:    99.8013  MISS %:   0.198719   MPKI: 0.00072
PSCL2 LOAD TRANSLATION ACCESS:      18116  HIT:      18080  MISS:         36  HIT %:    99.8013  MISS %:   0.198719   MPKI: 0.00072
PSCL2 PREFETCH  REQUESTED:          0  ISSUED:          0  USEFUL:          0  USELESS:          0
PSCL2 USEFUL LOAD PREFETCHES:          0 PREFETCH ISSUED TO LOWER LEVEL:          0  ACCURACY: -nan
PSCL2 TIMELY PREFETCHES:          0 LATE PREFETCHES: 0 DROPPED PREFETCHES: 0
PSCL2 PREFETCHES SAME FILL-ORIGIN LEVEL: 0 DIFFERENT FILL-ORIGIN LEVEL: 0

LLC TOTAL     ACCESS:    1612882  HIT:     444241  MISS:    1168641  HIT %:    27.5433  MISS %:    72.4567   MPKI: 23.3728
LLC LOAD      ACCESS:      19187  HIT:         94  MISS:      19093  HIT %:   0.489915  MISS %:    99.5101   MPKI: 0.38186
LLC RFO       ACCESS:          1  HIT:          0  MISS:          1  HIT %:          0  MISS %:        100   MPKI: 2e-05
LLC PREFETCH  ACCESS:    1140335  HIT:          2  MISS:    1140333  HIT %: 0.000175387  MISS %:    99.9998   MPKI: 22.8067
LLC WRITEBACK ACCESS:     451058  HIT:     444141  MISS:       6917  HIT %:    98.4665  MISS %:    1.53351   MPKI: 0.13834
LLC LOAD TRANSLATION ACCESS:       2301  HIT:          4  MISS:       2297  HIT %:   0.173837  MISS %:    99.8262   MPKI: 0.04594
LLC PREFETCH  REQUESTED:          0  ISSUED:          0  USEFUL:          0  USELESS:    1140391
LLC USEFUL LOAD PREFETCHES:          0 PREFETCH ISSUED TO LOWER LEVEL:    1140334  ACCURACY: 0
LLC TIMELY PREFETCHES:          0 LATE PREFETCHES: 0 DROPPED PREFETCHES: 0
LLC PREFETCHES SAME FILL-ORIGIN LEVEL: 0 DIFFERENT FILL-ORIGIN LEVEL: 0
LLC AVERAGE MISS LATENCY: 175.191 cycles
LLC RQ	ACCESS:      21489	FORWARD:          0	MERGED:          0	TO_CACHE:      21489
LLC WQ	ACCESS:     451058	FORWARD:          0	MERGED:          0	TO_CACHE:     451058
LLC PQ	ACCESS:    1140336	FORWARD:          0	MERGED:          0	TO_CACHE:    1140336

LLC Dense regions hint to LLC: 0

RAW hits: 12869
Loads Generated: 7970129
Loads sent to L1D: 7957258
Stores Generated: 2590179
Stores sent to L1D: 2590179
Major fault: 0 Minor fault: 22421
Allocated PAGES: 22421

stream: 
stream:times selected: 2697180
stream:pref_filled: 1399710
stream:pref_useful: 1399676
stream:pref_late: 3897
stream:misses: 42
stream:misses_by_poll: 0

CS: 
CS:times selected: 2695800
CS:pref_filled: 2392
CS:pref_useful: 2392
CS:pref_late: 0
CS:misses: 56572
CS:misses_by_poll: 14

CPLX: 
CPLX:times selected: 1362
CPLX:pref_filled: 6
CPLX:pref_useful: 6
CPLX:pref_late: 0
CPLX:misses: 172
CPLX:misses_by_poll: 0

NL_L1: 
NL:times selected: 5
NL:pref_filled: 1
NL:pref_useful: 1
NL:pref_late: 0
NL:misses: 1
NL:misses_by_poll: 0

total selections: 5394347
total_filled: 1136402
total_useful: 1136391
total_late: 3918
total_polluted: 14
total_misses_after_warmup: 51148
conflicts: 14
Degree Incremented Times: 40650
Degree Decremented Times: 0

L1 IP Table Write Accesses: 6503618
L1 IP Table Read Accesses: 6503604
L1 RST Write Accesses: 2155120
L1 RST Read Accesses: 4310240
L1 CSPT Write Accesses: 2155120
L1 CSPT Read Accesses: 2158961
L1 RR Filter Tag Write Accesses: 1181021
L1 RR Filter Tag Read Accesses: 393322306
L1 IP Table Tag Write Accesses: 6503620
L1 IP Table Tag Read Accesses: 6503620
L1 RST Tag Write Accesses: 0
L1 RST Tag Read Accesses: 19394622
L1 RR Filter Write Accesses: 0
L1 RR Filter Read Accesses: 18462096
test: 40246
L2 IP Table Read Accesses: 2048907
L2 IP Table Write Accesses: 2029734
L2 IP Table Tag Read Accesses: 1024456
L2 IP Table Tag Write Accesses: 1024456

DRAM Statistics
 CHANNEL 0
 RQ ROW_BUFFER_HIT:     727120  ROW_BUFFER_MISS:     434602
 DBUS_CONGESTED:        285
 WQ ROW_BUFFER_HIT:     212209  ROW_BUFFER_MISS:     252956  FULL:          0

 AVG_CONGESTED_CYCLE: 5
 All warmup complete: 2
Channel 0 Bank busy for read cycles: 0
Channel 0 Bank busy for write cycles: 0
Channel 0
Rank 0
0banks busy for read cycles: 22278002
0banks busy for write cycles: 5501
1banks busy for read cycles: 23663737
1banks busy for write cycles: 522594
2banks busy for read cycles: 7351024
2banks busy for write cycles: 322495
3banks busy for read cycles: 3066306
3banks busy for write cycles: 284263
4banks busy for read cycles: 2721918
4banks busy for write cycles: 276533
5banks busy for read cycles: 2005795
5banks busy for write cycles: 283760
6banks busy for read cycles: 3121755
6banks busy for write cycles: 289517
7banks busy for read cycles: 2034786
7banks busy for write cycles: 932192
8banks busy for read cycles: 188677
8banks busy for write cycles: 7334897

CPU 0 Branch Prediction Accuracy: 85.6192% MPKI: 15.7911 Average ROB Occupancy at Mispredict: 24.2119
Branch types
NOT_BRANCH: 44509664 89.0193%
BRANCH_DIRECT_JUMP: 0 0%
BRANCH_INDIRECT: 0 0%
BRANCH_CONDITIONAL: 5490333 10.9807%
BRANCH_DIRECT_CALL: 0 0%
BRANCH_INDIRECT_CALL: 0 0%
BRANCH_RETURN: 0 0%
BRANCH_OTHER: 0 0%

@sumon_overall_L1D   1136391      3918        28   1136402   2362042   2362042
@Sumon_Early_by_class_L1D   1134521      1865         5         0
@Sumon_Late_by_class_L1D      3897         0         0         0

@Sumon_Early_by_cycle_L1D      7391     16711     29251    253787     30187    799064         0         0         0         0         0         0
@Sumon_Late_by_cycle_L1D      3298       611         9         0         0         0         0         0         0         0         0         0
@Sumon_Early_stream_L1D      7391     16706     29170    252793     29461    799000         0         0         0         0         0         0
@Sumon_Early_CS_L1D         0         3        78       994       726        64         0         0         0         0         0         0
@Sumon_Early_CPLX_L1D         0         2         3         0         0         0         0         0         0         0         0         0
@Sumon_Late_stream_L1D      3277       611         9         0         0         0         0         0         0         0         0         0
@Sumon_Late_CS_L1D         0         0         0         0         0         0         0         0         0         0         0         0
@Sumon_Late_CPLX_L1D         0         0         0         0         0         0         0         0         0         0         0         0
@sumon_overall_L2C         0         0   1140319   1140335   4700600   5763543
@Sumon_Early_by_class_L2C         0         0         0         0
@Sumon_Late_by_class_L2C         0         0         0         0

@Sumon_Early_by_cycle_L2C         0         0         0         0         0         0         0         0         0         0         0         0
@Sumon_Late_by_cycle_L2C         0         0         0         0         0         0         0         0         0         0         0         0
@Sumon_Early_stream_L2C         0         0         0         0         0         0         0         0         0         0         0         0
@Sumon_Early_CS_L2C         0         0         0         0         0         0         0         0         0         0         0         0
@Sumon_Early_CPLX_L2C         0         0         0         0         0         0         0         0         0         0         0         0
@Sumon_Late_stream_L2C         0         0         0         0         0         0         0         0         0         0         0         0
@Sumon_Late_CS_L2C         0         0         0         0         0         0         0         0         0         0         0         0
@Sumon_Late_CPLX_L2C         0         0         0         0         0         0         0         0         0         0         0         0
DRAM PAGES: 1048576
Allocated PAGES: 22421
