
*** ChampSim Multicore Out-of-Order Simulator ***

Warmup Instructions: 10000000
Simulation Instructions: 50000000
Number of CPUs: 1
LLC sets: 2048
LLC ways: 16
Off-chip DRAM Size: 4096 MB Channels: 1 Width: 64-bit Data Rate: 6400 MT/s
CPU 0 runs traces/SPEC2017/605.mcf_s-994B.champsimtrace.xz
.xz
CPU 0 Bimodal branch predictor
BTB has LRU replacement policy
ITLB has LRU replacement policy
DTLB has LRU replacement policy
STLB has LRU replacement policy
L1I has LRU replacement policy
IP Table Entries: 256
L1D has LRU replacement policy
IP_Table L2 entries: 256
L2C has LRU replacement policy
Initialize DRRIP state for LLC
Heartbeat CPU 0 instructions: 10000000 cycles: 3242088 heartbeat IPC: 3.08443 cumulative IPC: 3.08443 (Simulation time: 0 hr 28 min 47 sec) 

Warmup complete CPU 0 instructions: 10000004 cycles: 3242089 (Simulation time: 0 hr 28 min 47 sec) 

Heartbeat CPU 0 instructions: 20000000 cycles: 39814163 heartbeat IPC: 0.273433 cumulative IPC: 0.273433 (Simulation time: 0 hr 53 min 12 sec) 
Heartbeat CPU 0 instructions: 30000003 cycles: 78833992 heartbeat IPC: 0.25628 cumulative IPC: 0.264579 (Simulation time: 1 hr 17 min 28 sec) 
Heartbeat CPU 0 instructions: 40000001 cycles: 113990564 heartbeat IPC: 0.284442 cumulative IPC: 0.270884 (Simulation time: 1 hr 41 min 30 sec) 
Heartbeat CPU 0 instructions: 50000001 cycles: 205468766 heartbeat IPC: 0.109316 cumulative IPC: 0.197798 (Simulation time: 2 hr 4 min 15 sec) 
Heartbeat CPU 0 instructions: 60000000 cycles: 250960809 heartbeat IPC: 0.219819 cumulative IPC: 0.201842 (Simulation time: 2 hr 14 min 14 sec) 
Finished CPU 0 instructions: 50000000 cycles: 247718726 cumulative IPC: 0.201842 (Simulation time: 2 hr 14 min 14 sec) 

ChampSim completed all CPUs

Region of Interest Statistics

CPU 0 cumulative IPC: 0.201842 instructions: 50000000 cycles: 247718726
ITLB TOTAL     ACCESS:    8952349  HIT:    8952349  MISS:          0  HIT %:        100  MISS %:          0   MPKI: 0
ITLB LOAD TRANSLATION ACCESS:    8952349  HIT:    8952349  MISS:          0  HIT %:        100  MISS %:          0   MPKI: 0
ITLB PREFETCH  REQUESTED:          0  ISSUED:          0  USEFUL:          0  USELESS:          0
ITLB USEFUL LOAD PREFETCHES:          0 PREFETCH ISSUED TO LOWER LEVEL:          0  ACCURACY: -nan
ITLB TIMELY PREFETCHES:          0 LATE PREFETCHES: 0 DROPPED PREFETCHES: 0
ITLB PREFETCHES SAME FILL-ORIGIN LEVEL: 0 DIFFERENT FILL-ORIGIN LEVEL: 0
ITLB AVERAGE MISS LATENCY: -nan cycles
ITLB RQ	ACCESS:    9151982	FORWARD:          0	MERGED:     199635	TO_CACHE:    8952347

DTLB TOTAL     ACCESS:   16535697  HIT:   15801565  MISS:     734132  HIT %:    95.5603  MISS %:    4.43968   MPKI: 14.6826
DTLB LOAD TRANSLATION ACCESS:   16535697  HIT:   15801565  MISS:     734132  HIT %:    95.5603  MISS %:    4.43968   MPKI: 14.6826
DTLB PREFETCH  REQUESTED:          0  ISSUED:          0  USEFUL:          0  USELESS:          0
DTLB USEFUL LOAD PREFETCHES:          0 PREFETCH ISSUED TO LOWER LEVEL:          0  ACCURACY: -nan
DTLB TIMELY PREFETCHES:          0 LATE PREFETCHES: 0 DROPPED PREFETCHES: 0
DTLB PREFETCHES SAME FILL-ORIGIN LEVEL: 0 DIFFERENT FILL-ORIGIN LEVEL: 0
DTLB AVERAGE MISS LATENCY: 75.4664 cycles
DTLB RQ	ACCESS:   19372343	FORWARD:          0	MERGED:    2687668	TO_CACHE:   16684675

STLB TOTAL     ACCESS:    3723548  HIT:    3351192  MISS:     372356  HIT %:         90  MISS %:         10   MPKI: 7.44712
STLB LOAD TRANSLATION ACCESS:     734132  HIT:     361871  MISS:     372261  HIT %:    49.2924  MISS %:    50.7076   MPKI: 7.44522
STLB TRANSLATION FROM L1D PREFETCHER ACCESS:    2989416  HIT:    2989321  MISS:         95  HIT %:    99.9968  MISS %: 0.00317788   MPKI: 0.0019
STLB PREFETCH  REQUESTED:          0  ISSUED:          0  USEFUL:         92  USELESS:          3
STLB USEFUL LOAD PREFETCHES:         92 PREFETCH ISSUED TO LOWER LEVEL:          0  ACCURACY: inf
STLB TIMELY PREFETCHES:         92 LATE PREFETCHES: 0 DROPPED PREFETCHES: 0
STLB PREFETCHES SAME FILL-ORIGIN LEVEL: 0 DIFFERENT FILL-ORIGIN LEVEL: 0
STLB AVERAGE MISS LATENCY: 130.411 cycles
STLB RQ	ACCESS:    4474912	FORWARD:          0	MERGED:     751304	TO_CACHE:    3723608

STLB Hit, L1D data hit: 0
STLB Hit, L2C data hit: 0
STLB Hit, LLC data hit: 0
STLB Hit, LLC data miss: 0
STLB STLB hints to L2: 0
L1D TOTAL     ACCESS:   22628182  HIT:   19374369  MISS:    3253813  HIT %:    85.6205  MISS %:    14.3795   MPKI: 65.0763
L1D LOAD      ACCESS:   14256407  HIT:   12604438  MISS:    1651969  HIT %:    88.4124  MISS %:    11.5876   MPKI: 33.0394
L1D RFO       ACCESS:    5068428  HIT:    5054707  MISS:      13721  HIT %:    99.7293  MISS %:   0.270715   MPKI: 0.27442
L1D PREFETCH  ACCESS:    3303347  HIT:    1715224  MISS:    1588123  HIT %:    51.9238  MISS %:    48.0762   MPKI: 31.7625
L1D PREFETCH  REQUESTED:    7483913  ISSUED:    7483913  USEFUL:     237497  USELESS:    1350561
L1D USEFUL LOAD PREFETCHES:     237497 PREFETCH ISSUED TO LOWER LEVEL:    1763032  ACCURACY: 13.4709
L1D TIMELY PREFETCHES:     237497 LATE PREFETCHES: 174668 DROPPED PREFETCHES: 0
L1D PREFETCHES SAME FILL-ORIGIN LEVEL: 1763032 DIFFERENT FILL-ORIGIN LEVEL: 0
L1D AVERAGE MISS LATENCY: 5.91382e+06 cycles
L1D RQ	ACCESS:   17010848	FORWARD:          0	MERGED:    1599983	TO_CACHE:   14281799
L1D WQ	ACCESS:    5114926	FORWARD:    1131419	MERGED:      24382	TO_CACHE:    5090544
L1D PQ	ACCESS:    3743133	FORWARD:          0	MERGED:          0	TO_CACHE:    3740780

L1D UNIQUE REGIONS ACCESSED: 0
L1D REGIONS CONFLICTS: 0
L1D Cross Page Prefetch Requests: 0
L1D Same Page Prefetch Requests: 4417349
L1D ROI Sum of L1D PQ occupancy: 48603316
L1D PREFETCHES PUSHED FROM L2C: 0
L1I TOTAL     ACCESS:    9151984  HIT:    9151984  MISS:          0  HIT %:        100  MISS %:          0   MPKI: 0
L1I LOAD      ACCESS:    9151984  HIT:    9151984  MISS:          0  HIT %:        100  MISS %:          0   MPKI: 0
L1I PREFETCH  REQUESTED:          0  ISSUED:          0  USEFUL:          0  USELESS:          0
L1I USEFUL LOAD PREFETCHES:          0 PREFETCH ISSUED TO LOWER LEVEL:          0  ACCURACY: -nan
L1I TIMELY PREFETCHES:          0 LATE PREFETCHES: 0 DROPPED PREFETCHES: 0
L1I PREFETCHES SAME FILL-ORIGIN LEVEL: 0 DIFFERENT FILL-ORIGIN LEVEL: 0
L1I AVERAGE MISS LATENCY: -nan cycles
L1I RQ	ACCESS:   14773749	FORWARD:          0	MERGED:    5621767	TO_CACHE:    9151982

BTB TOTAL     ACCESS:   11195514  HIT:   10468271  MISS:     727243  HIT %:    93.5042  MISS %:    6.49584   MPKI: 14.5449
BTB BRANCH_DIRECT_JUMP	ACCESS:    1118881  HIT:    1118860  MISS:         21
BTB BRANCH_INDIRECT	ACCESS:          0  HIT:          0  MISS:          0
BTB BRANCH_CONDITIONAL	ACCESS:    6895963  HIT:    6895921  MISS:         42
BTB BRANCH_DIRECT_CALL	ACCESS:    1540838  HIT:    1540825  MISS:         13
BTB BRANCH_INDIRECT_CALL	ACCESS:      49500  HIT:      49492  MISS:          8
BTB BRANCH_RETURN	ACCESS:    1590332  HIT:     863173  MISS:     727159
BTB BRANCH_OTHER ACCESS:          0  HIT:          0  MISS:          0

L2C TOTAL     ACCESS:    4288346  HIT:    1843155  MISS:    2445191  HIT %:    42.9806  MISS %:    57.0194   MPKI: 48.9038
L2C LOAD      ACCESS:    1477298  HIT:     445489  MISS:    1031809  HIT %:    30.1557  MISS %:    69.8443   MPKI: 20.6362
L2C DATA LOAD MPKI: 20.6362
L2C INSTRUCTION LOAD MPKI: 0
L2C RFO       ACCESS:      13480  HIT:      11744  MISS:       1736  HIT %:    87.1217  MISS %:    12.8783   MPKI: 0.03472
L2C PREFETCH  ACCESS:    2046249  HIT:     764564  MISS:    1281685  HIT %:    37.3642  MISS %:    62.6358   MPKI: 25.6337
L2C DATA PREFETCH MPKI: 25.6337
L2C INSTRUCTION PREFETCH MPKI: 0
L2C WRITEBACK ACCESS:     142463  HIT:     142170  MISS:        293  HIT %:    99.7943  MISS %:   0.205667   MPKI: 0.00586
L2C LOAD TRANSLATION ACCESS:     608708  HIT:     479131  MISS:     129577  HIT %:    78.7128  MISS %:    21.2872   MPKI: 2.59154
L2C TRANSLATION FROM L1D PREFETCHER ACCESS:        148  HIT:         57  MISS:         91  HIT %:    38.5135  MISS %:    61.4865   MPKI: 0.00182
L2C PREFETCH  REQUESTED:     306351  ISSUED:     306351  USEFUL:      22767  USELESS:    1259430
L2C USEFUL LOAD PREFETCHES:      22767 PREFETCH ISSUED TO LOWER LEVEL:    1281689  ACCURACY: 1.77633
L2C TIMELY PREFETCHES:      22767 LATE PREFETCHES: 4 DROPPED PREFETCHES: 0
L2C PREFETCHES SAME FILL-ORIGIN LEVEL: 76919 DIFFERENT FILL-ORIGIN LEVEL: 0
L2C AVERAGE MISS LATENCY: 164.097 cycles
L2C RQ	ACCESS:    2099637	FORWARD:          0	MERGED:          0	TO_CACHE:    2099634
L2C WQ	ACCESS:     142463	FORWARD:          8	MERGED:          0	TO_CACHE:     142463
L2C PQ	ACCESS:    2069383	FORWARD:          0	MERGED:      23082	TO_CACHE:    2046296

L2C Instructions Evicting Data 0
L2C Translations Evicting Data 121720
L2C Data Evicting Data 2194028
L2C Instructions Evicting Instructions 0
L2C Translations Evicting Instructions 0
L2C Data Evicting Instructions 0
L2C Instructions Evicting Translations 0
L2C Translations Evicting Translations 7948
L2C Data Evicting Translations 121202
L2C Dense regions hint from L2: 0
PSCL5 TOTAL     ACCESS:     372356  HIT:     372356  MISS:          0  HIT %:        100  MISS %:          0   MPKI: 0
PSCL5 LOAD TRANSLATION ACCESS:     372261  HIT:     372261  MISS:          0  HIT %:        100  MISS %:          0   MPKI: 0
PSCL5 TRANSLATION FROM L1D PREFETCHER ACCESS:         95  HIT:         95  MISS:          0  HIT %:        100  MISS %:          0   MPKI: 0
PSCL5 PREFETCH  REQUESTED:          0  ISSUED:          0  USEFUL:          0  USELESS:          0
PSCL5 USEFUL LOAD PREFETCHES:          0 PREFETCH ISSUED TO LOWER LEVEL:          0  ACCURACY: -nan
PSCL5 TIMELY PREFETCHES:          0 LATE PREFETCHES: 0 DROPPED PREFETCHES: 0
PSCL5 PREFETCHES SAME FILL-ORIGIN LEVEL: 0 DIFFERENT FILL-ORIGIN LEVEL: 0

PSCL4 TOTAL     ACCESS:     372356  HIT:     372356  MISS:          0  HIT %:        100  MISS %:          0   MPKI: 0
PSCL4 LOAD TRANSLATION ACCESS:     372261  HIT:     372261  MISS:          0  HIT %:        100  MISS %:          0   MPKI: 0
PSCL4 TRANSLATION FROM L1D PREFETCHER ACCESS:         95  HIT:         95  MISS:          0  HIT %:        100  MISS %:          0   MPKI: 0
PSCL4 PREFETCH  REQUESTED:          0  ISSUED:          0  USEFUL:          0  USELESS:          0
PSCL4 USEFUL LOAD PREFETCHES:          0 PREFETCH ISSUED TO LOWER LEVEL:          0  ACCURACY: -nan
PSCL4 TIMELY PREFETCHES:          0 LATE PREFETCHES: 0 DROPPED PREFETCHES: 0
PSCL4 PREFETCHES SAME FILL-ORIGIN LEVEL: 0 DIFFERENT FILL-ORIGIN LEVEL: 0

PSCL3 TOTAL     ACCESS:     372356  HIT:     372356  MISS:          0  HIT %:        100  MISS %:          0   MPKI: 0
PSCL3 LOAD TRANSLATION ACCESS:     372261  HIT:     372261  MISS:          0  HIT %:        100  MISS %:          0   MPKI: 0
PSCL3 TRANSLATION FROM L1D PREFETCHER ACCESS:         95  HIT:         95  MISS:          0  HIT %:        100  MISS %:          0   MPKI: 0
PSCL3 PREFETCH  REQUESTED:          0  ISSUED:          0  USEFUL:          0  USELESS:          0
PSCL3 USEFUL LOAD PREFETCHES:          0 PREFETCH ISSUED TO LOWER LEVEL:          0  ACCURACY: -nan
PSCL3 TIMELY PREFETCHES:          0 LATE PREFETCHES: 0 DROPPED PREFETCHES: 0
PSCL3 PREFETCHES SAME FILL-ORIGIN LEVEL: 0 DIFFERENT FILL-ORIGIN LEVEL: 0

PSCL2 TOTAL     ACCESS:     372356  HIT:     135346  MISS:     237010  HIT %:    36.3485  MISS %:    63.6515   MPKI: 4.7402
PSCL2 LOAD TRANSLATION ACCESS:     372314  HIT:     135304  MISS:     237010  HIT %:    36.3414  MISS %:    63.6586   MPKI: 4.7402
PSCL2 TRANSLATION FROM L1D PREFETCHER ACCESS:         42  HIT:         42  MISS:          0  HIT %:        100  MISS %:          0   MPKI: 0
PSCL2 PREFETCH  REQUESTED:          0  ISSUED:          0  USEFUL:          0  USELESS:          0
PSCL2 USEFUL LOAD PREFETCHES:          0 PREFETCH ISSUED TO LOWER LEVEL:          0  ACCURACY: -nan
PSCL2 TIMELY PREFETCHES:          0 LATE PREFETCHES: 0 DROPPED PREFETCHES: 0
PSCL2 PREFETCHES SAME FILL-ORIGIN LEVEL: 0 DIFFERENT FILL-ORIGIN LEVEL: 0

LLC TOTAL     ACCESS:    2537479  HIT:     588942  MISS:    1948537  HIT %:    23.2097  MISS %:    76.7903   MPKI: 38.9707
LLC LOAD      ACCESS:    1031808  HIT:     263067  MISS:     768741  HIT %:    25.4957  MISS %:    74.5043   MPKI: 15.3748
LLC RFO       ACCESS:       1733  HIT:       1317  MISS:        416  HIT %:    75.9954  MISS %:    24.0046   MPKI: 0.00832
LLC PREFETCH  ACCESS:    1281688  HIT:     206525  MISS:    1075163  HIT %:    16.1135  MISS %:    83.8865   MPKI: 21.5033
LLC WRITEBACK ACCESS:      92582  HIT:      88126  MISS:       4456  HIT %:     95.187  MISS %:    4.81303   MPKI: 0.08912
LLC LOAD TRANSLATION ACCESS:     129577  HIT:      29830  MISS:      99747  HIT %:    23.0211  MISS %:    76.9789   MPKI: 1.99494
LLC TRANSLATION FROM L1D PREFETCHER ACCESS:         91  HIT:         77  MISS:         14  HIT %:    84.6154  MISS %:    15.3846   MPKI: 0.00028
LLC PREFETCH  REQUESTED:          0  ISSUED:          0  USEFUL:      14593  USELESS:    1059634
LLC USEFUL LOAD PREFETCHES:      14593 PREFETCH ISSUED TO LOWER LEVEL:    1075163  ACCURACY: 1.35728
LLC TIMELY PREFETCHES:      14593 LATE PREFETCHES: 0 DROPPED PREFETCHES: 0
LLC PREFETCHES SAME FILL-ORIGIN LEVEL: 0 DIFFERENT FILL-ORIGIN LEVEL: 0
LLC AVERAGE MISS LATENCY: 167.255 cycles
LLC RQ	ACCESS:    1163209	FORWARD:          0	MERGED:          0	TO_CACHE:    1163209
LLC WQ	ACCESS:      92582	FORWARD:          1	MERGED:          0	TO_CACHE:      92582
LLC PQ	ACCESS:    1281689	FORWARD:          0	MERGED:          0	TO_CACHE:    1281688

LLC Dense regions hint to LLC: 0

RAW hits: 405137
Loads Generated: 17415986
Loads sent to L1D: 17010848
Stores Generated: 5114922
Stores sent to L1D: 5114926
Major fault: 0 Minor fault: 119985
Allocated PAGES: 119985

stream: 
stream:times selected: 5446702
stream:pref_filled: 1276127
stream:pref_useful: 166686
stream:pref_late: 151411
stream:misses: 474921
stream:misses_by_poll: 0

CS: 
CS:times selected: 277371
CS:pref_filled: 123244
CS:pref_useful: 118365
CS:pref_late: 19
CS:misses: 771
CS:misses_by_poll: 68

CPLX: 
CPLX:times selected: 5124079
CPLX:pref_filled: 435071
CPLX:pref_useful: 23819
CPLX:pref_late: 1569
CPLX:misses: 1420414
CPLX:misses_by_poll: 2805

NL_L1: 
NL:times selected: 54840
NL:pref_filled: 16699
NL:pref_useful: 3104
NL:pref_late: 2259
NL:misses: 19521
NL:misses_by_poll: 1

total selections: 10902992
total_filled: 1588123
total_useful: 237497
total_late: 178163
total_polluted: 2874
total_misses_after_warmup: 1677359
conflicts: 49552
Degree Incremented Times: 64319
Degree Decremented Times: 208757

L1 IP Table Write Accesses: 14180231
L1 IP Table Read Accesses: 14130679
L1 RST Write Accesses: 4552671
L1 RST Read Accesses: 9105342
L1 CSPT Write Accesses: 4552671
L1 CSPT Read Accesses: 8832469
L1 RR Filter Tag Write Accesses: 3743133
L1 RR Filter Tag Read Accesses: 158519657
L1 IP Table Tag Write Accesses: 14281797
L1 IP Table Tag Read Accesses: 14281797
L1 RST Tag Write Accesses: 0
L1 RST Tag Read Accesses: 42817010
L1 RR Filter Write Accesses: 0
L1 RR Filter Read Accesses: 5793280
test: 3173386
L2 IP Table Read Accesses: 6476109
L2 IP Table Write Accesses: 4999036
L2 IP Table Tag Read Accesses: 3238340
L2 IP Table Tag Write Accesses: 3238340

DRAM Statistics
 CHANNEL 0
 RQ ROW_BUFFER_HIT:     265969  ROW_BUFFER_MISS:    1678107
 DBUS_CONGESTED:        364
 WQ ROW_BUFFER_HIT:      20555  ROW_BUFFER_MISS:      51132  FULL:          0

 AVG_CONGESTED_CYCLE: 4
 All warmup complete: 2
Channel 0 Bank busy for read cycles: 0
Channel 0 Bank busy for write cycles: 0
Channel 0
Rank 0
0banks busy for read cycles: 100484815
0banks busy for write cycles: 56249
1banks busy for read cycles: 56664813
1banks busy for write cycles: 11063753
2banks busy for read cycles: 42832640
2banks busy for write cycles: 1952212
3banks busy for read cycles: 21486445
3banks busy for write cycles: 337281
4banks busy for read cycles: 7865767
4banks busy for write cycles: 62447
5banks busy for read cycles: 3129409
5banks busy for write cycles: 10436
6banks busy for read cycles: 1334502
6banks busy for write cycles: 3122
7banks busy for read cycles: 362779
7banks busy for write cycles: 657
8banks busy for read cycles: 71400
8banks busy for write cycles: 0

CPU 0 Branch Prediction Accuracy: 92.7543% MPKI: 18.162 Average ROB Occupancy at Mispredict: 16.6089
Branch types
NOT_BRANCH: 37466601 74.9332%
BRANCH_DIRECT_JUMP: 1118881 2.23776%
BRANCH_INDIRECT: 0 0%
BRANCH_CONDITIONAL: 8233493 16.467%
BRANCH_DIRECT_CALL: 1540838 3.08168%
BRANCH_INDIRECT_CALL: 49500 0.099%
BRANCH_RETURN: 1590332 3.18066%
BRANCH_OTHER: 0 0%

@sumon_overall_L1D    237497    174668   1350561   1588123   7483913   7483913
@Sumon_Early_by_class_L1D    110702    103225     21561      2202
@Sumon_Late_by_class_L1D    148135        17      1532      2202

@Sumon_Early_by_cycle_L1D     66658     18195      5687      3078      2816     15686     26091     38784     43392     12916      3429       765
@Sumon_Late_by_cycle_L1D    120986     48755      4909        18         0         0         0         0         0         0         0         0
@Sumon_Early_stream_L1D     65179     17163      4950      2368      1899      6382      4549      3931      2657      1247       303        74
@Sumon_Early_CS_L1D        81       308       210       313       452      7402     19391     31910     36588      6282       201        87
@Sumon_Early_CPLX_L1D       749       500       432       340       408      1551      1806      2762      4117      5372      2921       603
@Sumon_Late_stream_L1D     95689     47625      4803        18         0         0         0         0         0         0         0         0
@Sumon_Late_CS_L1D        11         6         0         0         0         0         0         0         0         0         0         0
@Sumon_Late_CPLX_L1D      1052       431        49         0         0         0         0         0         0         0         0         0
@sumon_overall_L2C     22767         4   1259430   1281776    306351    306351
@Sumon_Early_by_class_L2C     17264      3135      1928         0
@Sumon_Late_by_class_L2C         0         2         0         0

@Sumon_Early_by_cycle_L2C         1         8         0         3         3        14        28        36        94      1078      2358     19144
@Sumon_Late_by_cycle_L2C         1         3         0         0         0         0         0         0         0         0         0         0
@Sumon_Early_stream_L2C         1         2         0         0         0         0         0         1        49       794      1899     14518
@Sumon_Early_CS_L2C         0         6         0         3         3        14        26        33        25        90       159      2776
@Sumon_Early_CPLX_L2C         0         0         0         0         0         0         0         2        18       165       242      1501
@Sumon_Late_stream_L2C         0         0         0         0         0         0         0         0         0         0         0         0
@Sumon_Late_CS_L2C         0         2         0         0         0         0         0         0         0         0         0         0
@Sumon_Late_CPLX_L2C         0         0         0         0         0         0         0         0         0         0         0         0
DRAM PAGES: 1048576
Allocated PAGES: 119985
