
*** ChampSim Multicore Out-of-Order Simulator ***

Warmup Instructions: 10000000
Simulation Instructions: 50000000
Number of CPUs: 1
LLC sets: 2048
LLC ways: 16
Off-chip DRAM Size: 4096 MB Channels: 1 Width: 64-bit Data Rate: 6400 MT/s
CPU 0 runs traces/SPEC2017/605.mcf_s-665B.champsimtrace.xz
.xz
CPU 0 Bimodal branch predictor
BTB has LRU replacement policy
ITLB has LRU replacement policy
DTLB has LRU replacement policy
STLB has LRU replacement policy
L1I has LRU replacement policy
IP Table Entries: 256
L1D has LRU replacement policy
IP_Table L2 entries: 256
L2C has LRU replacement policy
Initialize DRRIP state for LLC
Heartbeat CPU 0 instructions: 10000000 cycles: 3319721 heartbeat IPC: 3.0123 cumulative IPC: 3.0123 (Simulation time: 0 hr 28 min 4 sec) 

Warmup complete CPU 0 instructions: 10000004 cycles: 3319722 (Simulation time: 0 hr 28 min 4 sec) 

Heartbeat CPU 0 instructions: 20000002 cycles: 42320505 heartbeat IPC: 0.256405 cumulative IPC: 0.256405 (Simulation time: 0 hr 52 min 22 sec) 
Heartbeat CPU 0 instructions: 30000000 cycles: 80917995 heartbeat IPC: 0.259084 cumulative IPC: 0.257738 (Simulation time: 1 hr 16 min 24 sec) 
Heartbeat CPU 0 instructions: 40000000 cycles: 119860241 heartbeat IPC: 0.256791 cumulative IPC: 0.257421 (Simulation time: 1 hr 40 min 3 sec) 
Heartbeat CPU 0 instructions: 50000000 cycles: 158525099 heartbeat IPC: 0.258633 cumulative IPC: 0.257723 (Simulation time: 1 hr 59 min 9 sec) 
Heartbeat CPU 0 instructions: 60000003 cycles: 197437125 heartbeat IPC: 0.25699 cumulative IPC: 0.257576 (Simulation time: 2 hr 10 min 6 sec) 
Finished CPU 0 instructions: 50000003 cycles: 194117404 cumulative IPC: 0.257576 (Simulation time: 2 hr 10 min 6 sec) 

ChampSim completed all CPUs

Region of Interest Statistics

CPU 0 cumulative IPC: 0.257576 instructions: 50000003 cycles: 194117404
ITLB TOTAL     ACCESS:    9249662  HIT:    9249662  MISS:          0  HIT %:        100  MISS %:          0   MPKI: 0
ITLB LOAD TRANSLATION ACCESS:    9249662  HIT:    9249662  MISS:          0  HIT %:        100  MISS %:          0   MPKI: 0
ITLB PREFETCH  REQUESTED:          0  ISSUED:          0  USEFUL:          0  USELESS:          0
ITLB USEFUL LOAD PREFETCHES:          0 PREFETCH ISSUED TO LOWER LEVEL:          0  ACCURACY: -nan
ITLB TIMELY PREFETCHES:          0 LATE PREFETCHES: 0 DROPPED PREFETCHES: 0
ITLB PREFETCHES SAME FILL-ORIGIN LEVEL: 0 DIFFERENT FILL-ORIGIN LEVEL: 0
ITLB AVERAGE MISS LATENCY: -nan cycles
ITLB RQ	ACCESS:    9676433	FORWARD:          0	MERGED:     426772	TO_CACHE:    9249661

DTLB TOTAL     ACCESS:   15476714  HIT:   14582325  MISS:     894389  HIT %:    94.2211  MISS %:    5.77893   MPKI: 17.8878
DTLB LOAD TRANSLATION ACCESS:   15476714  HIT:   14582325  MISS:     894389  HIT %:    94.2211  MISS %:    5.77893   MPKI: 17.8878
DTLB PREFETCH  REQUESTED:          0  ISSUED:          0  USEFUL:          0  USELESS:          0
DTLB USEFUL LOAD PREFETCHES:          0 PREFETCH ISSUED TO LOWER LEVEL:          0  ACCURACY: -nan
DTLB TIMELY PREFETCHES:          0 LATE PREFETCHES: 0 DROPPED PREFETCHES: 0
DTLB PREFETCHES SAME FILL-ORIGIN LEVEL: 0 DIFFERENT FILL-ORIGIN LEVEL: 0
DTLB AVERAGE MISS LATENCY: 10.8425 cycles
DTLB RQ	ACCESS:   18882816	FORWARD:          0	MERGED:    3305325	TO_CACHE:   15577491

STLB TOTAL     ACCESS:    4072031  HIT:    4058495  MISS:      13536  HIT %:    99.6676  MISS %:   0.332414   MPKI: 0.27072
STLB LOAD TRANSLATION ACCESS:     894389  HIT:     880853  MISS:      13536  HIT %:    98.4866  MISS %:    1.51344   MPKI: 0.27072
STLB TRANSLATION FROM L1D PREFETCHER ACCESS:    3177642  HIT:    3177642  MISS:          0  HIT %:        100  MISS %:          0   MPKI: 0
STLB PREFETCH  REQUESTED:          0  ISSUED:          0  USEFUL:          0  USELESS:          0
STLB USEFUL LOAD PREFETCHES:          0 PREFETCH ISSUED TO LOWER LEVEL:          0  ACCURACY: -nan
STLB TIMELY PREFETCHES:          0 LATE PREFETCHES: 0 DROPPED PREFETCHES: 0
STLB PREFETCHES SAME FILL-ORIGIN LEVEL: 0 DIFFERENT FILL-ORIGIN LEVEL: 0
STLB AVERAGE MISS LATENCY: 107.649 cycles
STLB RQ	ACCESS:    4657723	FORWARD:          0	MERGED:     585691	TO_CACHE:    4072032

STLB Hit, L1D data hit: 0
STLB Hit, L2C data hit: 0
STLB Hit, LLC data hit: 0
STLB Hit, LLC data miss: 0
STLB STLB hints to L2: 0
L1D TOTAL     ACCESS:   22171236  HIT:   18650777  MISS:    3520459  HIT %:    84.1215  MISS %:    15.8785   MPKI: 70.4092
L1D LOAD      ACCESS:   13141823  HIT:   11693434  MISS:    1448389  HIT %:    88.9788  MISS %:    11.0212   MPKI: 28.9678
L1D RFO       ACCESS:    5408273  HIT:    5219010  MISS:     189263  HIT %:    96.5005  MISS %:    3.49951   MPKI: 3.78526
L1D PREFETCH  ACCESS:    3621140  HIT:    1738333  MISS:    1882807  HIT %:    48.0051  MISS %:    51.9949   MPKI: 37.6561
L1D PREFETCH  REQUESTED:    7530640  ISSUED:    7530630  USEFUL:     499936  USELESS:    1382916
L1D USEFUL LOAD PREFETCHES:     499936 PREFETCH ISSUED TO LOWER LEVEL:    1955512  ACCURACY: 25.5655
L1D TIMELY PREFETCHES:     499936 LATE PREFETCHES: 72303 DROPPED PREFETCHES: 0
L1D PREFETCHES SAME FILL-ORIGIN LEVEL: 1955512 DIFFERENT FILL-ORIGIN LEVEL: 0
L1D AVERAGE MISS LATENCY: 2.07111e+06 cycles
L1D RQ	ACCESS:   16801848	FORWARD:          0	MERGED:    3114373	TO_CACHE:   13157792
L1D WQ	ACCESS:    5753549	FORWARD:     533645	MERGED:      28525	TO_CACHE:    5725024
L1D PQ	ACCESS:    3767296	FORWARD:          0	MERGED:          0	TO_CACHE:    3763334

L1D UNIQUE REGIONS ACCESSED: 0
L1D REGIONS CONFLICTS: 0
L1D Cross Page Prefetch Requests: 0
L1D Same Page Prefetch Requests: 4509516
L1D ROI Sum of L1D PQ occupancy: 49241335
L1D PREFETCHES PUSHED FROM L2C: 0
L1I TOTAL     ACCESS:    9676434  HIT:    9676434  MISS:          0  HIT %:        100  MISS %:          0   MPKI: 0
L1I LOAD      ACCESS:    9676434  HIT:    9676434  MISS:          0  HIT %:        100  MISS %:          0   MPKI: 0
L1I PREFETCH  REQUESTED:          0  ISSUED:          0  USEFUL:          0  USELESS:          0
L1I USEFUL LOAD PREFETCHES:          0 PREFETCH ISSUED TO LOWER LEVEL:          0  ACCURACY: -nan
L1I TIMELY PREFETCHES:          0 LATE PREFETCHES: 0 DROPPED PREFETCHES: 0
L1I PREFETCHES SAME FILL-ORIGIN LEVEL: 0 DIFFERENT FILL-ORIGIN LEVEL: 0
L1I AVERAGE MISS LATENCY: -nan cycles
L1I RQ	ACCESS:   15073896	FORWARD:          0	MERGED:    5397463	TO_CACHE:    9676433

BTB TOTAL     ACCESS:   11942322  HIT:   11365508  MISS:     576814  HIT %:      95.17  MISS %:       4.83   MPKI: 11.5363
BTB BRANCH_DIRECT_JUMP	ACCESS:    1326301  HIT:    1326265  MISS:         36
BTB BRANCH_INDIRECT	ACCESS:          0  HIT:          0  MISS:          0
BTB BRANCH_CONDITIONAL	ACCESS:    7942778  HIT:    7942703  MISS:         75
BTB BRANCH_DIRECT_CALL	ACCESS:    1261742  HIT:    1261724  MISS:         18
BTB BRANCH_INDIRECT_CALL	ACCESS:      74878  HIT:      74870  MISS:          8
BTB BRANCH_RETURN	ACCESS:    1336623  HIT:     759946  MISS:     576677
BTB BRANCH_OTHER ACCESS:          0  HIT:          0  MISS:          0

L2C TOTAL     ACCESS:    4315917  HIT:    2016033  MISS:    2299884  HIT %:    46.7116  MISS %:    53.2884   MPKI: 45.9977
L2C LOAD      ACCESS:    1376077  HIT:     533613  MISS:     842464  HIT %:    38.7778  MISS %:    61.2222   MPKI: 16.8493
L2C DATA LOAD MPKI: 16.8493
L2C INSTRUCTION LOAD MPKI: 0
L2C RFO       ACCESS:     188862  HIT:      66297  MISS:     122565  HIT %:    35.1034  MISS %:    64.8966   MPKI: 2.4513
L2C PREFETCH  ACCESS:    2451192  HIT:    1122720  MISS:    1328472  HIT %:     45.803  MISS %:     54.197   MPKI: 26.5694
L2C DATA PREFETCH MPKI: 26.5694
L2C INSTRUCTION PREFETCH MPKI: 0
L2C WRITEBACK ACCESS:     286154  HIT:     285955  MISS:        199  HIT %:    99.9305  MISS %:   0.069543   MPKI: 0.00398
L2C LOAD TRANSLATION ACCESS:      13632  HIT:       7448  MISS:       6184  HIT %:    54.6362  MISS %:    45.3638   MPKI: 0.12368
L2C PREFETCH  REQUESTED:     962178  ISSUED:     962178  USEFUL:     104582  USELESS:    1223597
L2C USEFUL LOAD PREFETCHES:     104582 PREFETCH ISSUED TO LOWER LEVEL:    1331680  ACCURACY: 7.85339
L2C TIMELY PREFETCHES:     104582 LATE PREFETCHES: 3208 DROPPED PREFETCHES: 0
L2C PREFETCHES SAME FILL-ORIGIN LEVEL: 348622 DIFFERENT FILL-ORIGIN LEVEL: 0
L2C AVERAGE MISS LATENCY: 119.815 cycles
L2C RQ	ACCESS:    1578580	FORWARD:          0	MERGED:          0	TO_CACHE:    1578571
L2C WQ	ACCESS:     286154	FORWARD:         15	MERGED:          0	TO_CACHE:     286154
L2C PQ	ACCESS:    2917690	FORWARD:          0	MERGED:     217182	TO_CACHE:    2700502

L2C Instructions Evicting Data 0
L2C Translations Evicting Data 6151
L2C Data Evicting Data 2287363
L2C Instructions Evicting Instructions 0
L2C Translations Evicting Instructions 0
L2C Data Evicting Instructions 0
L2C Instructions Evicting Translations 0
L2C Translations Evicting Translations 33
L2C Data Evicting Translations 6138
L2C Dense regions hint from L2: 0
PSCL5 TOTAL     ACCESS:      13536  HIT:      13536  MISS:          0  HIT %:        100  MISS %:          0   MPKI: 0
PSCL5 LOAD TRANSLATION ACCESS:      13536  HIT:      13536  MISS:          0  HIT %:        100  MISS %:          0   MPKI: 0
PSCL5 PREFETCH  REQUESTED:          0  ISSUED:          0  USEFUL:          0  USELESS:          0
PSCL5 USEFUL LOAD PREFETCHES:          0 PREFETCH ISSUED TO LOWER LEVEL:          0  ACCURACY: -nan
PSCL5 TIMELY PREFETCHES:          0 LATE PREFETCHES: 0 DROPPED PREFETCHES: 0
PSCL5 PREFETCHES SAME FILL-ORIGIN LEVEL: 0 DIFFERENT FILL-ORIGIN LEVEL: 0

PSCL4 TOTAL     ACCESS:      13536  HIT:      13536  MISS:          0  HIT %:        100  MISS %:          0   MPKI: 0
PSCL4 LOAD TRANSLATION ACCESS:      13536  HIT:      13536  MISS:          0  HIT %:        100  MISS %:          0   MPKI: 0
PSCL4 PREFETCH  REQUESTED:          0  ISSUED:          0  USEFUL:          0  USELESS:          0
PSCL4 USEFUL LOAD PREFETCHES:          0 PREFETCH ISSUED TO LOWER LEVEL:          0  ACCURACY: -nan
PSCL4 TIMELY PREFETCHES:          0 LATE PREFETCHES: 0 DROPPED PREFETCHES: 0
PSCL4 PREFETCHES SAME FILL-ORIGIN LEVEL: 0 DIFFERENT FILL-ORIGIN LEVEL: 0

PSCL3 TOTAL     ACCESS:      13536  HIT:      13536  MISS:          0  HIT %:        100  MISS %:          0   MPKI: 0
PSCL3 LOAD TRANSLATION ACCESS:      13536  HIT:      13536  MISS:          0  HIT %:        100  MISS %:          0   MPKI: 0
PSCL3 PREFETCH  REQUESTED:          0  ISSUED:          0  USEFUL:          0  USELESS:          0
PSCL3 USEFUL LOAD PREFETCHES:          0 PREFETCH ISSUED TO LOWER LEVEL:          0  ACCURACY: -nan
PSCL3 TIMELY PREFETCHES:          0 LATE PREFETCHES: 0 DROPPED PREFETCHES: 0
PSCL3 PREFETCHES SAME FILL-ORIGIN LEVEL: 0 DIFFERENT FILL-ORIGIN LEVEL: 0

PSCL2 TOTAL     ACCESS:      13536  HIT:      13373  MISS:        163  HIT %:    98.7958  MISS %:     1.2042   MPKI: 0.00326
PSCL2 LOAD TRANSLATION ACCESS:      13536  HIT:      13373  MISS:        163  HIT %:    98.7958  MISS %:     1.2042   MPKI: 0.00326
PSCL2 PREFETCH  REQUESTED:          0  ISSUED:          0  USEFUL:          0  USELESS:          0
PSCL2 USEFUL LOAD PREFETCHES:          0 PREFETCH ISSUED TO LOWER LEVEL:          0  ACCURACY: -nan
PSCL2 TIMELY PREFETCHES:          0 LATE PREFETCHES: 0 DROPPED PREFETCHES: 0
PSCL2 PREFETCHES SAME FILL-ORIGIN LEVEL: 0 DIFFERENT FILL-ORIGIN LEVEL: 0

LLC TOTAL     ACCESS:    2480185  HIT:    1407025  MISS:    1073160  HIT %:    56.7306  MISS %:    43.2694   MPKI: 21.4632
LLC LOAD      ACCESS:     839258  HIT:     623897  MISS:     215361  HIT %:    74.3391  MISS %:    25.6609   MPKI: 4.30722
LLC RFO       ACCESS:     122563  HIT:     119656  MISS:       2907  HIT %:    97.6282  MISS %:    2.37184   MPKI: 0.05814
LLC PREFETCH  ACCESS:    1331680  HIT:     479912  MISS:     851768  HIT %:    36.0381  MISS %:    63.9619   MPKI: 17.0354
LLC WRITEBACK ACCESS:     180500  HIT:     179177  MISS:       1323  HIT %:     99.267  MISS %:   0.732964   MPKI: 0.02646
LLC LOAD TRANSLATION ACCESS:       6184  HIT:       4383  MISS:       1801  HIT %:    70.8765  MISS %:    29.1235   MPKI: 0.03602
LLC PREFETCH  REQUESTED:          0  ISSUED:          0  USEFUL:      65129  USELESS:     786527
LLC USEFUL LOAD PREFETCHES:      65129 PREFETCH ISSUED TO LOWER LEVEL:     851768  ACCURACY: 7.64633
LLC TIMELY PREFETCHES:      65129 LATE PREFETCHES: 0 DROPPED PREFETCHES: 0
LLC PREFETCHES SAME FILL-ORIGIN LEVEL: 0 DIFFERENT FILL-ORIGIN LEVEL: 0
LLC AVERAGE MISS LATENCY: 192.247 cycles
LLC RQ	ACCESS:     968005	FORWARD:          0	MERGED:          0	TO_CACHE:     968005
LLC WQ	ACCESS:     180500	FORWARD:          0	MERGED:          0	TO_CACHE:     180500
LLC PQ	ACCESS:    1331680	FORWARD:          0	MERGED:          0	TO_CACHE:    1331680

LLC Dense regions hint to LLC: 0

RAW hits: 724036
Loads Generated: 17525886
Loads sent to L1D: 16801848
Stores Generated: 5753549
Stores sent to L1D: 5753549
Major fault: 0 Minor fault: 9976
Allocated PAGES: 9976

stream: 
stream:times selected: 6223267
stream:pref_filled: 1552663
stream:pref_useful: 117391
stream:pref_late: 3041
stream:misses: 359445
stream:misses_by_poll: 0

CS: 
CS:times selected: 829394
CS:pref_filled: 470850
CS:pref_useful: 459725
CS:pref_late: 79854
CS:misses: 119317
CS:misses_by_poll: 2176

CPLX: 
CPLX:times selected: 5351138
CPLX:pref_filled: 223867
CPLX:pref_useful: 25846
CPLX:pref_late: 570
CPLX:misses: 1260554
CPLX:misses_by_poll: 491

NL_L1: 
NL:times selected: 41045
NL:pref_filled: 12691
NL:pref_useful: 1028
NL:pref_late: 20
NL:misses: 12540
NL:misses_by_poll: 1

total selections: 12444844
total_filled: 1882807
total_useful: 499936
total_late: 86802
total_polluted: 2668
total_misses_after_warmup: 1464360
conflicts: 87852
Degree Incremented Times: 58478
Degree Decremented Times: 173185

L1 IP Table Write Accesses: 12943117
L1 IP Table Read Accesses: 12855265
L1 RST Write Accesses: 5182537
L1 RST Read Accesses: 10365074
L1 CSPT Write Accesses: 5182537
L1 CSPT Read Accesses: 9651728
L1 RR Filter Tag Write Accesses: 3767306
L1 RR Filter Tag Read Accesses: 204374931
L1 IP Table Tag Write Accesses: 13157794
L1 IP Table Tag Read Accesses: 13157794
L1 RST Tag Write Accesses: 0
L1 RST Tag Read Accesses: 45397367
L1 RR Filter Write Accesses: 0
L1 RR Filter Read Accesses: 7552373
test: 2891781
L2 IP Table Read Accesses: 6342908
L2 IP Table Write Accesses: 4970309
L2 IP Table Tag Read Accesses: 3173444
L2 IP Table Tag Write Accesses: 3173444

DRAM Statistics
 CHANNEL 0
 RQ ROW_BUFFER_HIT:     147957  ROW_BUFFER_MISS:     923847
 DBUS_CONGESTED:        146
 WQ ROW_BUFFER_HIT:       1475  ROW_BUFFER_MISS:       8649  FULL:          0

 AVG_CONGESTED_CYCLE: 4
 All warmup complete: 2
Channel 0 Bank busy for read cycles: 0
Channel 0 Bank busy for write cycles: 0
Channel 0
Rank 0
0banks busy for read cycles: 139058344
0banks busy for write cycles: 7188
1banks busy for read cycles: 16590359
1banks busy for write cycles: 1772322
2banks busy for read cycles: 11557411
2banks busy for write cycles: 429011
3banks busy for read cycles: 8685294
3banks busy for write cycles: 107097
4banks busy for read cycles: 6559966
4banks busy for write cycles: 33796
5banks busy for read cycles: 4531865
5banks busy for write cycles: 6215
6banks busy for read cycles: 2734973
6banks busy for write cycles: 2370
7banks busy for read cycles: 1414880
7banks busy for write cycles: 956
8banks busy for read cycles: 625358
8banks busy for write cycles: 0

CPU 0 Branch Prediction Accuracy: 89.0487% MPKI: 27.313 Average ROB Occupancy at Mispredict: 12.8342
Branch types
NOT_BRANCH: 37529454 75.0589%
BRANCH_DIRECT_JUMP: 1326301 2.6526%
BRANCH_INDIRECT: 0 0%
BRANCH_CONDITIONAL: 8470661 16.9413%
BRANCH_DIRECT_CALL: 1261742 2.52348%
BRANCH_INDIRECT_CALL: 74878 0.149756%
BRANCH_RETURN: 1336623 2.67325%
BRANCH_OTHER: 0 0%

@sumon_overall_L1D    499936     72303   1382916   1882807   7530630   7530640
@Sumon_Early_by_class_L1D     98113    378047     22932        12
@Sumon_Late_by_class_L1D      2207     67257       521        12

@Sumon_Early_by_cycle_L1D     69286     53039    122809     74673     23580     18917     23211     28412     29819     32678     15406      8106
@Sumon_Late_by_cycle_L1D     28324     38206      5633       136         4         0         0         0         0         0         0         0
@Sumon_Early_stream_L1D      6834      2867      2870      1200       922      4921      6152     10821     17783     25482     11682      6579
@Sumon_Early_CS_L1D     61806     49369    118173     71492     20897     11296     16226     16003      9162      2208       823       592
@Sumon_Early_CPLX_L1D       610       776      1755      1962      1733      2535       762      1494      2733      4823      2845       904
@Sumon_Late_stream_L1D      1319       768       118         2         0         0         0         0         0         0         0         0
@Sumon_Late_CS_L1D     24310     37306      5503       134         4         0         0         0         0         0         0         0
@Sumon_Late_CPLX_L1D       381       128        12         0         0         0         0         0         0         0         0         0
@sumon_overall_L2C    104582      3208   1223597   1328472    962178    962178
@Sumon_Early_by_class_L2C     46014     52107      6043         0
@Sumon_Late_by_class_L2C         0      3089         0         0

@Sumon_Early_by_cycle_L2C      1650      3311      3731      1360       413       291        11       151       687      6053     10025     76899
@Sumon_Late_by_cycle_L2C      1861      1204       140         3         0         0         0         0         0         0         0         0
@Sumon_Early_stream_L2C         0         0         0         0         0         0         0       131       628      5518      8789     30948
@Sumon_Early_CS_L2C      1608      3310      3729      1359       413       291         6         9         6        99       518     40759
@Sumon_Early_CPLX_L2C         0         0         0         0         0         0         0         9        45       387       655      4947
@Sumon_Late_stream_L2C         0         0         0         0         0         0         0         0         0         0         0         0
@Sumon_Late_CS_L2C      1746      1200       140         3         0         0         0         0         0         0         0         0
@Sumon_Late_CPLX_L2C         0         0         0         0         0         0         0         0         0         0         0         0
DRAM PAGES: 1048576
Allocated PAGES: 9976
