
*** ChampSim Multicore Out-of-Order Simulator ***

Warmup Instructions: 10000000
Simulation Instructions: 50000000
Number of CPUs: 1
LLC sets: 2048
LLC ways: 16
Off-chip DRAM Size: 4096 MB Channels: 1 Width: 64-bit Data Rate: 6400 MT/s
CPU 0 runs traces/SPEC2017/619.lbm_s-3766B.champsimtrace.xz
.xz
CPU 0 Bimodal branch predictor
BTB has LRU replacement policy
ITLB has LRU replacement policy
DTLB has LRU replacement policy
STLB has LRU replacement policy
L1I has LRU replacement policy
IP Table Entries: 256
L1D has LRU replacement policy
IP_Table L2 entries: 256
L2C has LRU replacement policy
Initialize DRRIP state for LLC
Heartbeat CPU 0 instructions: 10000000 cycles: 2732984 heartbeat IPC: 3.659 cumulative IPC: 3.659 (Simulation time: 0 hr 19 min 33 sec) 

Warmup complete CPU 0 instructions: 10000004 cycles: 2732985 (Simulation time: 0 hr 19 min 33 sec) 

Heartbeat CPU 0 instructions: 20000000 cycles: 12919065 heartbeat IPC: 0.981732 cumulative IPC: 0.981732 (Simulation time: 0 hr 37 min 46 sec) 
Heartbeat CPU 0 instructions: 30000002 cycles: 22990422 heartbeat IPC: 0.992915 cumulative IPC: 0.987292 (Simulation time: 0 hr 57 min 23 sec) 
Heartbeat CPU 0 instructions: 40000002 cycles: 33193534 heartbeat IPC: 0.980093 cumulative IPC: 0.98488 (Simulation time: 1 hr 16 min 43 sec) 
Heartbeat CPU 0 instructions: 50000000 cycles: 43459056 heartbeat IPC: 0.974134 cumulative IPC: 0.982172 (Simulation time: 1 hr 37 min 3 sec) 
Heartbeat CPU 0 instructions: 60000000 cycles: 53524441 heartbeat IPC: 0.993504 cumulative IPC: 0.984417 (Simulation time: 1 hr 53 min 46 sec) 
Finished CPU 0 instructions: 50000000 cycles: 50791474 cumulative IPC: 0.984417 (Simulation time: 1 hr 53 min 46 sec) 

ChampSim completed all CPUs

Region of Interest Statistics

CPU 0 cumulative IPC: 0.984417 instructions: 50000000 cycles: 50791474
ITLB TOTAL     ACCESS:    6467419  HIT:    6467419  MISS:          0  HIT %:        100  MISS %:          0   MPKI: 0
ITLB LOAD TRANSLATION ACCESS:    6467419  HIT:    6467419  MISS:          0  HIT %:        100  MISS %:          0   MPKI: 0
ITLB PREFETCH  REQUESTED:          0  ISSUED:          0  USEFUL:          0  USELESS:          0
ITLB USEFUL LOAD PREFETCHES:          0 PREFETCH ISSUED TO LOWER LEVEL:          0  ACCURACY: -nan
ITLB TIMELY PREFETCHES:          0 LATE PREFETCHES: 0 DROPPED PREFETCHES: 0
ITLB PREFETCHES SAME FILL-ORIGIN LEVEL: 0 DIFFERENT FILL-ORIGIN LEVEL: 0
ITLB AVERAGE MISS LATENCY: -nan cycles
ITLB RQ	ACCESS:    8481815	FORWARD:          0	MERGED:    2014396	TO_CACHE:    6467419

DTLB TOTAL     ACCESS:    9102131  HIT:    9071028  MISS:      31103  HIT %:    99.6583  MISS %:   0.341711   MPKI: 0.62206
DTLB LOAD TRANSLATION ACCESS:    9102131  HIT:    9071028  MISS:      31103  HIT %:    99.6583  MISS %:   0.341711   MPKI: 0.62206
DTLB PREFETCH  REQUESTED:          0  ISSUED:          0  USEFUL:          0  USELESS:          0
DTLB USEFUL LOAD PREFETCHES:          0 PREFETCH ISSUED TO LOWER LEVEL:          0  ACCURACY: -nan
DTLB TIMELY PREFETCHES:          0 LATE PREFETCHES: 0 DROPPED PREFETCHES: 0
DTLB PREFETCHES SAME FILL-ORIGIN LEVEL: 0 DIFFERENT FILL-ORIGIN LEVEL: 0
DTLB AVERAGE MISS LATENCY: 101.188 cycles
DTLB RQ	ACCESS:   13442251	FORWARD:          0	MERGED:    4335769	TO_CACHE:    9106482

STLB TOTAL     ACCESS:     232123  HIT:     215245  MISS:      16878  HIT %:    92.7289  MISS %:    7.27115   MPKI: 0.33756
STLB LOAD TRANSLATION ACCESS:      31103  HIT:      14225  MISS:      16878  HIT %:    45.7351  MISS %:    54.2649   MPKI: 0.33756
STLB TRANSLATION FROM L1D PREFETCHER ACCESS:     201020  HIT:     201020  MISS:          0  HIT %:        100  MISS %:          0   MPKI: 0
STLB PREFETCH  REQUESTED:          0  ISSUED:          0  USEFUL:          0  USELESS:          0
STLB USEFUL LOAD PREFETCHES:          0 PREFETCH ISSUED TO LOWER LEVEL:          0  ACCURACY: -nan
STLB TIMELY PREFETCHES:          0 LATE PREFETCHES: 0 DROPPED PREFETCHES: 0
STLB PREFETCHES SAME FILL-ORIGIN LEVEL: 0 DIFFERENT FILL-ORIGIN LEVEL: 0
STLB AVERAGE MISS LATENCY: 168.413 cycles
STLB RQ	ACCESS:     309262	FORWARD:          0	MERGED:      77139	TO_CACHE:     232123

STLB Hit, L1D data hit: 0
STLB Hit, L2C data hit: 0
STLB Hit, LLC data hit: 0
STLB Hit, LLC data miss: 0
STLB STLB hints to L2: 0
L1D TOTAL     ACCESS:   13702188  HIT:   11920441  MISS:    1781747  HIT %:    86.9966  MISS %:    13.0034   MPKI: 35.6349
L1D LOAD      ACCESS:    6190823  HIT:    6179685  MISS:      11138  HIT %:    99.8201  MISS %:   0.179911   MPKI: 0.22276
L1D RFO       ACCESS:    7238963  HIT:    5727177  MISS:    1511786  HIT %:     79.116  MISS %:     20.884   MPKI: 30.2357
L1D PREFETCH  ACCESS:     272402  HIT:      13579  MISS:     258823  HIT %:    4.98491  MISS %:    95.0151   MPKI: 5.17646
L1D PREFETCH  REQUESTED:     556555  ISSUED:     556318  USEFUL:     258829  USELESS:          0
L1D USEFUL LOAD PREFETCHES:     258829 PREFETCH ISSUED TO LOWER LEVEL:     260339  ACCURACY: 99.42
L1D TIMELY PREFETCHES:     258829 LATE PREFETCHES: 1508 DROPPED PREFETCHES: 0
L1D PREFETCHES SAME FILL-ORIGIN LEVEL: 260339 DIFFERENT FILL-ORIGIN LEVEL: 0
L1D AVERAGE MISS LATENCY: 23928 cycles
L1D RQ	ACCESS:   11504691	FORWARD:          0	MERGED:    4699640	TO_CACHE:    6196252
L1D WQ	ACCESS:    7443211	FORWARD:     608799	MERGED:     197212	TO_CACHE:    7245999
L1D PQ	ACCESS:     278159	FORWARD:          0	MERGED:          0	TO_CACHE:     278159

L1D UNIQUE REGIONS ACCESSED: 0
L1D REGIONS CONFLICTS: 0
L1D Cross Page Prefetch Requests: 0
L1D Same Page Prefetch Requests: 335092
L1D ROI Sum of L1D PQ occupancy: 21936915
L1D PREFETCHES PUSHED FROM L2C: 0
L1I TOTAL     ACCESS:    8481813  HIT:    8481813  MISS:          0  HIT %:        100  MISS %:          0   MPKI: 0
L1I LOAD      ACCESS:    8481813  HIT:    8481813  MISS:          0  HIT %:        100  MISS %:          0   MPKI: 0
L1I PREFETCH  REQUESTED:          0  ISSUED:          0  USEFUL:          0  USELESS:          0
L1I USEFUL LOAD PREFETCHES:          0 PREFETCH ISSUED TO LOWER LEVEL:          0  ACCURACY: -nan
L1I TIMELY PREFETCHES:          0 LATE PREFETCHES: 0 DROPPED PREFETCHES: 0
L1I PREFETCHES SAME FILL-ORIGIN LEVEL: 0 DIFFERENT FILL-ORIGIN LEVEL: 0
L1I AVERAGE MISS LATENCY: -nan cycles
L1I RQ	ACCESS:   11883422	FORWARD:          0	MERGED:    3401607	TO_CACHE:    8481815

BTB TOTAL     ACCESS:     535381  HIT:     535375  MISS:          6  HIT %:    99.9989  MISS %:  0.0011207   MPKI: 0.00012
BTB BRANCH_DIRECT_JUMP	ACCESS:       2268  HIT:       2267  MISS:          1
BTB BRANCH_INDIRECT	ACCESS:          0  HIT:          0  MISS:          0
BTB BRANCH_CONDITIONAL	ACCESS:     533113  HIT:     533108  MISS:          5
BTB BRANCH_DIRECT_CALL	ACCESS:          0  HIT:          0  MISS:          0
BTB BRANCH_INDIRECT_CALL	ACCESS:          0  HIT:          0  MISS:          0
BTB BRANCH_RETURN	ACCESS:          0  HIT:          0  MISS:          0
BTB BRANCH_OTHER ACCESS:          0  HIT:          0  MISS:          0

L2C TOTAL     ACCESS:    3674825  HIT:    2573906  MISS:    1100919  HIT %:    70.0416  MISS %:    29.9584   MPKI: 22.0184
L2C LOAD      ACCESS:       9630  HIT:       1261  MISS:       8369  HIT %:    13.0945  MISS %:    86.9055   MPKI: 0.16738
L2C DATA LOAD MPKI: 0.16738
L2C INSTRUCTION LOAD MPKI: 0
L2C RFO       ACCESS:    1511785  HIT:     682978  MISS:     828807  HIT %:    45.1769  MISS %:    54.8231   MPKI: 16.5761
L2C PREFETCH  ACCESS:     624749  HIT:     363157  MISS:     261592  HIT %:    58.1285  MISS %:    41.8715   MPKI: 5.23184
L2C DATA PREFETCH MPKI: 5.23184
L2C INSTRUCTION PREFETCH MPKI: 0
L2C WRITEBACK ACCESS:    1511782  HIT:    1511764  MISS:         18  HIT %:    99.9988  MISS %: 0.00119065   MPKI: 0.00036
L2C LOAD TRANSLATION ACCESS:      16879  HIT:      14746  MISS:       2133  HIT %:     87.363  MISS %:     12.637   MPKI: 0.04266
L2C PREFETCH  REQUESTED:     518219  ISSUED:     518219  USEFUL:       1261  USELESS:     260475
L2C USEFUL LOAD PREFETCHES:       1261 PREFETCH ISSUED TO LOWER LEVEL:     261766  ACCURACY: 0.481728
L2C TIMELY PREFETCHES:       1261 LATE PREFETCHES: 174 DROPPED PREFETCHES: 0
L2C PREFETCHES SAME FILL-ORIGIN LEVEL: 176951 DIFFERENT FILL-ORIGIN LEVEL: 0
L2C AVERAGE MISS LATENCY: 497.139 cycles
L2C RQ	ACCESS:    1538302	FORWARD:          0	MERGED:          0	TO_CACHE:    1538302
L2C WQ	ACCESS:    1511783	FORWARD:          0	MERGED:          0	TO_CACHE:    1511783
L2C PQ	ACCESS:     778550	FORWARD:          0	MERGED:     120557	TO_CACHE:     657993

L2C Instructions Evicting Data 0
L2C Translations Evicting Data 2128
L2C Data Evicting Data 1096639
L2C Instructions Evicting Instructions 0
L2C Translations Evicting Instructions 0
L2C Data Evicting Instructions 0
L2C Instructions Evicting Translations 0
L2C Translations Evicting Translations 5
L2C Data Evicting Translations 2129
L2C Dense regions hint from L2: 0
PSCL5 TOTAL     ACCESS:      16878  HIT:      16878  MISS:          0  HIT %:        100  MISS %:          0   MPKI: 0
PSCL5 LOAD TRANSLATION ACCESS:      16878  HIT:      16878  MISS:          0  HIT %:        100  MISS %:          0   MPKI: 0
PSCL5 PREFETCH  REQUESTED:          0  ISSUED:          0  USEFUL:          0  USELESS:          0
PSCL5 USEFUL LOAD PREFETCHES:          0 PREFETCH ISSUED TO LOWER LEVEL:          0  ACCURACY: -nan
PSCL5 TIMELY PREFETCHES:          0 LATE PREFETCHES: 0 DROPPED PREFETCHES: 0
PSCL5 PREFETCHES SAME FILL-ORIGIN LEVEL: 0 DIFFERENT FILL-ORIGIN LEVEL: 0

PSCL4 TOTAL     ACCESS:      16878  HIT:      16878  MISS:          0  HIT %:        100  MISS %:          0   MPKI: 0
PSCL4 LOAD TRANSLATION ACCESS:      16878  HIT:      16878  MISS:          0  HIT %:        100  MISS %:          0   MPKI: 0
PSCL4 PREFETCH  REQUESTED:          0  ISSUED:          0  USEFUL:          0  USELESS:          0
PSCL4 USEFUL LOAD PREFETCHES:          0 PREFETCH ISSUED TO LOWER LEVEL:          0  ACCURACY: -nan
PSCL4 TIMELY PREFETCHES:          0 LATE PREFETCHES: 0 DROPPED PREFETCHES: 0
PSCL4 PREFETCHES SAME FILL-ORIGIN LEVEL: 0 DIFFERENT FILL-ORIGIN LEVEL: 0

PSCL3 TOTAL     ACCESS:      16878  HIT:      16878  MISS:          0  HIT %:        100  MISS %:          0   MPKI: 0
PSCL3 LOAD TRANSLATION ACCESS:      16878  HIT:      16878  MISS:          0  HIT %:        100  MISS %:          0   MPKI: 0
PSCL3 PREFETCH  REQUESTED:          0  ISSUED:          0  USEFUL:          0  USELESS:          0
PSCL3 USEFUL LOAD PREFETCHES:          0 PREFETCH ISSUED TO LOWER LEVEL:          0  ACCURACY: -nan
PSCL3 TIMELY PREFETCHES:          0 LATE PREFETCHES: 0 DROPPED PREFETCHES: 0
PSCL3 PREFETCHES SAME FILL-ORIGIN LEVEL: 0 DIFFERENT FILL-ORIGIN LEVEL: 0

PSCL2 TOTAL     ACCESS:      16878  HIT:      16860  MISS:         18  HIT %:    99.8934  MISS %:   0.106648   MPKI: 0.00036
PSCL2 LOAD TRANSLATION ACCESS:      16878  HIT:      16860  MISS:         18  HIT %:    99.8934  MISS %:   0.106648   MPKI: 0.00036
PSCL2 PREFETCH  REQUESTED:          0  ISSUED:          0  USEFUL:          0  USELESS:          0
PSCL2 USEFUL LOAD PREFETCHES:          0 PREFETCH ISSUED TO LOWER LEVEL:          0  ACCURACY: -nan
PSCL2 TIMELY PREFETCHES:          0 LATE PREFETCHES: 0 DROPPED PREFETCHES: 0
PSCL2 PREFETCHES SAME FILL-ORIGIN LEVEL: 0 DIFFERENT FILL-ORIGIN LEVEL: 0

LLC TOTAL     ACCESS:    1929583  HIT:     835360  MISS:    1094223  HIT %:    43.2923  MISS %:    56.7077   MPKI: 21.8845
LLC LOAD      ACCESS:       8195  HIT:          0  MISS:       8195  HIT %:          0  MISS %:        100   MPKI: 0.1639
LLC RFO       ACCESS:     828806  HIT:      18935  MISS:     809871  HIT %:    2.28461  MISS %:    97.7154   MPKI: 16.1974
LLC PREFETCH  ACCESS:     261766  HIT:          0  MISS:     261766  HIT %:          0  MISS %:        100   MPKI: 5.23532
LLC WRITEBACK ACCESS:     828683  HIT:     816425  MISS:      12258  HIT %:    98.5208  MISS %:    1.47921   MPKI: 0.24516
LLC LOAD TRANSLATION ACCESS:       2133  HIT:          0  MISS:       2133  HIT %:          0  MISS %:        100   MPKI: 0.04266
LLC PREFETCH  REQUESTED:          0  ISSUED:          0  USEFUL:          0  USELESS:     262500
LLC USEFUL LOAD PREFETCHES:          0 PREFETCH ISSUED TO LOWER LEVEL:     261766  ACCURACY: 0
LLC TIMELY PREFETCHES:          0 LATE PREFETCHES: 0 DROPPED PREFETCHES: 0
LLC PREFETCHES SAME FILL-ORIGIN LEVEL: 0 DIFFERENT FILL-ORIGIN LEVEL: 0
LLC AVERAGE MISS LATENCY: 469.449 cycles
LLC RQ	ACCESS:     839142	FORWARD:          0	MERGED:          0	TO_CACHE:     839141
LLC WQ	ACCESS:     828682	FORWARD:          1	MERGED:          0	TO_CACHE:     828682
LLC PQ	ACCESS:     261766	FORWARD:          0	MERGED:          0	TO_CACHE:     261766

LLC Dense regions hint to LLC: 0

RAW hits: 169403
Loads Generated: 11674098
Loads sent to L1D: 11504691
Stores Generated: 7443187
Stores sent to L1D: 7443211
Major fault: 0 Minor fault: 13292
Allocated PAGES: 13292

stream: 
stream:times selected: 1864339
stream:pref_filled: 38686
stream:pref_useful: 38686
stream:pref_late: 721
stream:misses: 9349
stream:misses_by_poll: 0

CS: 
CS:times selected: 332307
CS:pref_filled: 205605
CS:pref_useful: 205605
CS:pref_late: 269
CS:misses: 1744
CS:misses_by_poll: 345

CPLX: 
CPLX:times selected: 1531651
CPLX:pref_filled: 66441
CPLX:pref_useful: 66441
CPLX:pref_late: 554
CPLX:misses: 5669
CPLX:misses_by_poll: 326

NL_L1: 
NL:times selected: 356
NL:pref_filled: 10
NL:pref_useful: 10
NL:pref_late: 3
NL:misses: 3
NL:misses_by_poll: 0

total selections: 3728653
total_filled: 258823
total_useful: 258829
total_late: 1580
total_polluted: 671
total_misses_after_warmup: 16567
conflicts: 60235
Degree Incremented Times: 97034
Degree Decremented Times: 0

L1 IP Table Write Accesses: 5364554
L1 IP Table Read Accesses: 5304319
L1 RST Write Accesses: 1516854
L1 RST Read Accesses: 3033708
L1 CSPT Write Accesses: 1516854
L1 CSPT Read Accesses: 4955243
L1 RR Filter Tag Write Accesses: 278396
L1 RR Filter Tag Read Accesses: 266533857
L1 IP Table Tag Write Accesses: 6196252
L1 IP Table Tag Read Accesses: 6196252
L1 RST Tag Write Accesses: 0
L1 RST Tag Read Accesses: 13670772
L1 RR Filter Write Accesses: 0
L1 RR Filter Read Accesses: 12139108
test: 128782
L2 IP Table Read Accesses: 483172
L2 IP Table Write Accesses: 473556
L2 IP Table Tag Read Accesses: 241596
L2 IP Table Tag Write Accesses: 241596

DRAM Statistics
 CHANNEL 0
 RQ ROW_BUFFER_HIT:     139409  ROW_BUFFER_MISS:     942556
 DBUS_CONGESTED:          0
 WQ ROW_BUFFER_HIT:     136472  ROW_BUFFER_MISS:     672638  FULL:          0

 AVG_CONGESTED_CYCLE: -
 All warmup complete: 2
Channel 0 Bank busy for read cycles: 0
Channel 0 Bank busy for write cycles: 0
Channel 0
Rank 0
0banks busy for read cycles: 25218
0banks busy for write cycles: 0
1banks busy for read cycles: 1247160
1banks busy for write cycles: 88454
2banks busy for read cycles: 2204764
2banks busy for write cycles: 88451
3banks busy for read cycles: 3806966
3banks busy for write cycles: 88449
4banks busy for read cycles: 3509565
4banks busy for write cycles: 88446
5banks busy for read cycles: 5824769
5banks busy for write cycles: 88446
6banks busy for read cycles: 4702295
6banks busy for write cycles: 88887
7banks busy for read cycles: 4793370
7banks busy for write cycles: 907460
8banks busy for read cycles: 5431278
8banks busy for write cycles: 17807497

CPU 0 Branch Prediction Accuracy: 99.7002% MPKI: 0.0321 Average ROB Occupancy at Mispredict: 25.1583
Branch types
NOT_BRANCH: 49464288 98.9286%
BRANCH_DIRECT_JUMP: 2268 0.004536%
BRANCH_INDIRECT: 0 0%
BRANCH_CONDITIONAL: 533113 1.06623%
BRANCH_DIRECT_CALL: 0 0%
BRANCH_INDIRECT_CALL: 0 0%
BRANCH_RETURN: 0 0%
BRANCH_OTHER: 0 0%

@sumon_overall_L1D    258829      1508         0    258823    556318    556555
@Sumon_Early_by_class_L1D     31854    182082     44891         1
@Sumon_Late_by_class_L1D       655       269       553         1

@Sumon_Early_by_cycle_L1D       938      5413      4303     13700      9563    117911    103488      3498        15         0         0         0
@Sumon_Late_by_cycle_L1D       310       425       513       146        75        39         0         0         0         0         0         0
@Sumon_Early_stream_L1D       447      4508      2443      9425      2493     12536         2         0         0         0         0         0
@Sumon_Early_CS_L1D       218       294       471      1297      1411     83235     93809      1347         0         0         0         0
@Sumon_Early_CPLX_L1D       273       609      1389      2978      5659     22140      9677      2151        15         0         0         0
@Sumon_Late_stream_L1D        93       228       218        72        27        17         0         0         0         0         0         0
@Sumon_Late_CS_L1D        52        68        96        20        20        13         0         0         0         0         0         0
@Sumon_Late_CPLX_L1D       135       129       198        54        28         9         0         0         0         0         0         0
@sumon_overall_L2C      1261       174    260475    261592    518219    518219
@Sumon_Early_by_class_L2C       498       760         0         0
@Sumon_Late_by_class_L2C       135        39         0         0

@Sumon_Early_by_cycle_L2C        97       104        98       192        58       588       124         0         0         0         0         0
@Sumon_Late_by_cycle_L2C        28        28        65        32        13         8         0         0         0         0         0         0
@Sumon_Early_stream_L2C        75        94        84       139        32        73         1         0         0         0         0         0
@Sumon_Early_CS_L2C        21        10        14        52        26       514       123         0         0         0         0         0
@Sumon_Early_CPLX_L2C         0         0         0         0         0         0         0         0         0         0         0         0
@Sumon_Late_stream_L2C        18        24        49        25        12         7         0         0         0         0         0         0
@Sumon_Late_CS_L2C        10         4        16         7         1         1         0         0         0         0         0         0
@Sumon_Late_CPLX_L2C         0         0         0         0         0         0         0         0         0         0         0         0
DRAM PAGES: 1048576
Allocated PAGES: 13292
