
*** ChampSim Multicore Out-of-Order Simulator ***

Warmup Instructions: 10000000
Simulation Instructions: 50000000
Number of CPUs: 1
LLC sets: 2048
LLC ways: 16
Off-chip DRAM Size: 4096 MB Channels: 1 Width: 64-bit Data Rate: 6400 MT/s
CPU 0 runs traces/SPEC2017/657.xz_s-2302B.champsimtrace.xz
.xz
CPU 0 Bimodal branch predictor
BTB has LRU replacement policy
ITLB has LRU replacement policy
DTLB has LRU replacement policy
STLB has LRU replacement policy
L1I has LRU replacement policy
IP Table Entries: 256
L1D has LRU replacement policy
IP_Table L2 entries: 256
L2C has LRU replacement policy
Initialize DRRIP state for LLC
Heartbeat CPU 0 instructions: 10000003 cycles: 2790828 heartbeat IPC: 3.58317 cumulative IPC: 3.58317 (Simulation time: 0 hr 18 min 51 sec) 

Warmup complete CPU 0 instructions: 10000003 cycles: 2790828 (Simulation time: 0 hr 18 min 51 sec) 

Heartbeat CPU 0 instructions: 20000002 cycles: 22107864 heartbeat IPC: 0.517678 cumulative IPC: 0.517678 (Simulation time: 0 hr 36 min 14 sec) 
Heartbeat CPU 0 instructions: 30000000 cycles: 41829629 heartbeat IPC: 0.507054 cumulative IPC: 0.512311 (Simulation time: 0 hr 53 min 37 sec) 
Heartbeat CPU 0 instructions: 40000000 cycles: 61532767 heartbeat IPC: 0.507533 cumulative IPC: 0.510708 (Simulation time: 1 hr 11 min 9 sec) 
Heartbeat CPU 0 instructions: 50000000 cycles: 81381974 heartbeat IPC: 0.503798 cumulative IPC: 0.508963 (Simulation time: 1 hr 28 min 31 sec) 
Heartbeat CPU 0 instructions: 60000001 cycles: 101302411 heartbeat IPC: 0.501997 cumulative IPC: 0.507555 (Simulation time: 1 hr 45 min 19 sec) 
Finished CPU 0 instructions: 50000000 cycles: 98511586 cumulative IPC: 0.507555 (Simulation time: 1 hr 45 min 19 sec) 

ChampSim completed all CPUs

Region of Interest Statistics

CPU 0 cumulative IPC: 0.507555 instructions: 50000000 cycles: 98511586
ITLB TOTAL     ACCESS:    7215501  HIT:    7215501  MISS:          0  HIT %:        100  MISS %:          0   MPKI: 0
ITLB LOAD TRANSLATION ACCESS:    7215501  HIT:    7215501  MISS:          0  HIT %:        100  MISS %:          0   MPKI: 0
ITLB PREFETCH  REQUESTED:          0  ISSUED:          0  USEFUL:          0  USELESS:          0
ITLB USEFUL LOAD PREFETCHES:          0 PREFETCH ISSUED TO LOWER LEVEL:          0  ACCURACY: -nan
ITLB TIMELY PREFETCHES:          0 LATE PREFETCHES: 0 DROPPED PREFETCHES: 0
ITLB PREFETCHES SAME FILL-ORIGIN LEVEL: 0 DIFFERENT FILL-ORIGIN LEVEL: 0
ITLB AVERAGE MISS LATENCY: -nan cycles
ITLB RQ	ACCESS:    8559844	FORWARD:          0	MERGED:    1344343	TO_CACHE:    7215501

DTLB TOTAL     ACCESS:   10194094  HIT:    9895853  MISS:     298241  HIT %:    97.0744  MISS %:    2.92563   MPKI: 5.96482
DTLB LOAD TRANSLATION ACCESS:   10194094  HIT:    9895853  MISS:     298241  HIT %:    97.0744  MISS %:    2.92563   MPKI: 5.96482
DTLB PREFETCH  REQUESTED:          0  ISSUED:          0  USEFUL:          0  USELESS:          0
DTLB USEFUL LOAD PREFETCHES:          0 PREFETCH ISSUED TO LOWER LEVEL:          0  ACCURACY: -nan
DTLB TIMELY PREFETCHES:          0 LATE PREFETCHES: 0 DROPPED PREFETCHES: 0
DTLB PREFETCHES SAME FILL-ORIGIN LEVEL: 0 DIFFERENT FILL-ORIGIN LEVEL: 0
DTLB AVERAGE MISS LATENCY: 15.0639 cycles
DTLB RQ	ACCESS:   12233519	FORWARD:          0	MERGED:    2037176	TO_CACHE:   10196343

STLB TOTAL     ACCESS:    1358624  HIT:    1312755  MISS:      45869  HIT %:    96.6239  MISS %:    3.37614   MPKI: 0.91738
STLB LOAD TRANSLATION ACCESS:     298241  HIT:     252372  MISS:      45869  HIT %:    84.6202  MISS %:    15.3798   MPKI: 0.91738
STLB TRANSLATION FROM L1D PREFETCHER ACCESS:    1060383  HIT:    1060383  MISS:          0  HIT %:        100  MISS %:          0   MPKI: 0
STLB PREFETCH  REQUESTED:          0  ISSUED:          0  USEFUL:          0  USELESS:          0
STLB USEFUL LOAD PREFETCHES:          0 PREFETCH ISSUED TO LOWER LEVEL:          0  ACCURACY: -nan
STLB TIMELY PREFETCHES:          0 LATE PREFETCHES: 0 DROPPED PREFETCHES: 0
STLB PREFETCHES SAME FILL-ORIGIN LEVEL: 0 DIFFERENT FILL-ORIGIN LEVEL: 0
STLB AVERAGE MISS LATENCY: 39.3269 cycles
STLB RQ	ACCESS:    1579810	FORWARD:          0	MERGED:     221186	TO_CACHE:    1358624

STLB Hit, L1D data hit: 0
STLB Hit, L2C data hit: 0
STLB Hit, LLC data hit: 0
STLB Hit, LLC data miss: 0
STLB STLB hints to L2: 0
L1D TOTAL     ACCESS:   13467846  HIT:   12753883  MISS:     713963  HIT %:    94.6988  MISS %:    5.30124   MPKI: 14.2793
L1D LOAD      ACCESS:    8347309  HIT:    8048909  MISS:     298400  HIT %:    96.4252  MISS %:     3.5748   MPKI: 5.968
L1D RFO       ACCESS:    3840935  HIT:    3804199  MISS:      36736  HIT %:    99.0436  MISS %:   0.956434   MPKI: 0.73472
L1D PREFETCH  ACCESS:    1279602  HIT:     900775  MISS:     378827  HIT %:    70.3949  MISS %:    29.6051   MPKI: 7.57654
L1D PREFETCH  REQUESTED:    2563533  ISSUED:    2563533  USEFUL:      45229  USELESS:     333603
L1D USEFUL LOAD PREFETCHES:      45229 PREFETCH ISSUED TO LOWER LEVEL:     379644  ACCURACY: 11.9135
L1D TIMELY PREFETCHES:      45229 LATE PREFETCHES: 810 DROPPED PREFETCHES: 0
L1D PREFETCHES SAME FILL-ORIGIN LEVEL: 379644 DIFFERENT FILL-ORIGIN LEVEL: 0
L1D AVERAGE MISS LATENCY: 60833.5 cycles
L1D RQ	ACCESS:   11326735	FORWARD:          0	MERGED:    2926130	TO_CACHE:    8375989
L1D WQ	ACCESS:    3924692	FORWARD:      25011	MERGED:      67162	TO_CACHE:    3857530
L1D PQ	ACCESS:    1281964	FORWARD:          0	MERGED:          0	TO_CACHE:    1281569

L1D UNIQUE REGIONS ACCESSED: 0
L1D REGIONS CONFLICTS: 0
L1D Cross Page Prefetch Requests: 0
L1D Same Page Prefetch Requests: 1527682
L1D ROI Sum of L1D PQ occupancy: 16683335
L1D PREFETCHES PUSHED FROM L2C: 0
L1I TOTAL     ACCESS:    8559794  HIT:    8559693  MISS:        101  HIT %:    99.9988  MISS %: 0.00117993   MPKI: 0.00202
L1I LOAD      ACCESS:    8559794  HIT:    8559693  MISS:        101  HIT %:    99.9988  MISS %: 0.00117993   MPKI: 0.00202
L1I PREFETCH  REQUESTED:          0  ISSUED:          0  USEFUL:          0  USELESS:          0
L1I USEFUL LOAD PREFETCHES:          0 PREFETCH ISSUED TO LOWER LEVEL:          0  ACCURACY: -nan
L1I TIMELY PREFETCHES:          0 LATE PREFETCHES: 0 DROPPED PREFETCHES: 0
L1I PREFETCHES SAME FILL-ORIGIN LEVEL: 0 DIFFERENT FILL-ORIGIN LEVEL: 0
L1I AVERAGE MISS LATENCY: 168.188 cycles
L1I RQ	ACCESS:   13100237	FORWARD:          0	MERGED:    4540393	TO_CACHE:    8559844

BTB TOTAL     ACCESS:    6175373  HIT:    6121295  MISS:      54078  HIT %:    99.1243  MISS %:   0.875704   MPKI: 1.08156
BTB BRANCH_DIRECT_JUMP	ACCESS:     694882  HIT:     694800  MISS:         82
BTB BRANCH_INDIRECT	ACCESS:      93373  HIT:      41549  MISS:      51824
BTB BRANCH_CONDITIONAL	ACCESS:    5266896  HIT:    5266636  MISS:        260
BTB BRANCH_DIRECT_CALL	ACCESS:      37667  HIT:      37644  MISS:         23
BTB BRANCH_INDIRECT_CALL	ACCESS:      22444  HIT:      22437  MISS:          7
BTB BRANCH_RETURN	ACCESS:      60111  HIT:      58229  MISS:       1882
BTB BRANCH_OTHER ACCESS:          0  HIT:          0  MISS:          0

L2C TOTAL     ACCESS:    1008726  HIT:     611697  MISS:     397029  HIT %:    60.6406  MISS %:    39.3594   MPKI: 7.94058
L2C LOAD      ACCESS:     297689  HIT:     137618  MISS:     160071  HIT %:    46.2288  MISS %:    53.7712   MPKI: 3.20142
L2C DATA LOAD MPKI: 3.1994
L2C INSTRUCTION LOAD MPKI: 0.00202
L2C RFO       ACCESS:      36729  HIT:      22207  MISS:      14522  HIT %:    60.4618  MISS %:    39.5382   MPKI: 0.29044
L2C PREFETCH  ACCESS:     385922  HIT:     179451  MISS:     206471  HIT %:    46.4993  MISS %:    53.5007   MPKI: 4.12942
L2C DATA PREFETCH MPKI: 4.12942
L2C INSTRUCTION PREFETCH MPKI: 0
L2C WRITEBACK ACCESS:     242494  HIT:     242014  MISS:        480  HIT %:    99.8021  MISS %:   0.197943   MPKI: 0.0096
L2C LOAD TRANSLATION ACCESS:      45892  HIT:      30407  MISS:      15485  HIT %:    66.2577  MISS %:    33.7423   MPKI: 0.3097
L2C PREFETCH  REQUESTED:       6807  ISSUED:       6807  USEFUL:      17756  USELESS:     188610
L2C USEFUL LOAD PREFETCHES:      17756 PREFETCH ISSUED TO LOWER LEVEL:     206477  ACCURACY: 8.59951
L2C TIMELY PREFETCHES:      17756 LATE PREFETCHES: 6 DROPPED PREFETCHES: 0
L2C PREFETCHES SAME FILL-ORIGIN LEVEL: 731 DIFFERENT FILL-ORIGIN LEVEL: 0
L2C AVERAGE MISS LATENCY: 114.458 cycles
L2C RQ	ACCESS:     380313	FORWARD:          0	MERGED:          0	TO_CACHE:     380311
L2C WQ	ACCESS:     242494	FORWARD:          4	MERGED:          0	TO_CACHE:     242494
L2C PQ	ACCESS:     386451	FORWARD:          0	MERGED:        498	TO_CACHE:     385951

L2C Instructions Evicting Data 98
L2C Translations Evicting Data 14962
L2C Data Evicting Data 365842
L2C Instructions Evicting Instructions 0
L2C Translations Evicting Instructions 5
L2C Data Evicting Instructions 99
L2C Instructions Evicting Translations 3
L2C Translations Evicting Translations 518
L2C Data Evicting Translations 15022
L2C Dense regions hint from L2: 0
PSCL5 TOTAL     ACCESS:      45869  HIT:      45869  MISS:          0  HIT %:        100  MISS %:          0   MPKI: 0
PSCL5 LOAD TRANSLATION ACCESS:      45869  HIT:      45869  MISS:          0  HIT %:        100  MISS %:          0   MPKI: 0
PSCL5 PREFETCH  REQUESTED:          0  ISSUED:          0  USEFUL:          0  USELESS:          0
PSCL5 USEFUL LOAD PREFETCHES:          0 PREFETCH ISSUED TO LOWER LEVEL:          0  ACCURACY: -nan
PSCL5 TIMELY PREFETCHES:          0 LATE PREFETCHES: 0 DROPPED PREFETCHES: 0
PSCL5 PREFETCHES SAME FILL-ORIGIN LEVEL: 0 DIFFERENT FILL-ORIGIN LEVEL: 0

PSCL4 TOTAL     ACCESS:      45869  HIT:      45869  MISS:          0  HIT %:        100  MISS %:          0   MPKI: 0
PSCL4 LOAD TRANSLATION ACCESS:      45869  HIT:      45869  MISS:          0  HIT %:        100  MISS %:          0   MPKI: 0
PSCL4 PREFETCH  REQUESTED:          0  ISSUED:          0  USEFUL:          0  USELESS:          0
PSCL4 USEFUL LOAD PREFETCHES:          0 PREFETCH ISSUED TO LOWER LEVEL:          0  ACCURACY: -nan
PSCL4 TIMELY PREFETCHES:          0 LATE PREFETCHES: 0 DROPPED PREFETCHES: 0
PSCL4 PREFETCHES SAME FILL-ORIGIN LEVEL: 0 DIFFERENT FILL-ORIGIN LEVEL: 0

PSCL3 TOTAL     ACCESS:      45869  HIT:      45868  MISS:          1  HIT %:    99.9978  MISS %: 0.00218012   MPKI: 2e-05
PSCL3 LOAD TRANSLATION ACCESS:      45869  HIT:      45868  MISS:          1  HIT %:    99.9978  MISS %: 0.00218012   MPKI: 2e-05
PSCL3 PREFETCH  REQUESTED:          0  ISSUED:          0  USEFUL:          0  USELESS:          0
PSCL3 USEFUL LOAD PREFETCHES:          0 PREFETCH ISSUED TO LOWER LEVEL:          0  ACCURACY: -nan
PSCL3 TIMELY PREFETCHES:          0 LATE PREFETCHES: 0 DROPPED PREFETCHES: 0
PSCL3 PREFETCHES SAME FILL-ORIGIN LEVEL: 0 DIFFERENT FILL-ORIGIN LEVEL: 0

PSCL2 TOTAL     ACCESS:      45869  HIT:      45845  MISS:         24  HIT %:    99.9477  MISS %:  0.0523229   MPKI: 0.00048
PSCL2 LOAD TRANSLATION ACCESS:      45869  HIT:      45845  MISS:         24  HIT %:    99.9477  MISS %:  0.0523229   MPKI: 0.00048
PSCL2 PREFETCH  REQUESTED:          0  ISSUED:          0  USEFUL:          0  USELESS:          0
PSCL2 USEFUL LOAD PREFETCHES:          0 PREFETCH ISSUED TO LOWER LEVEL:          0  ACCURACY: -nan
PSCL2 TIMELY PREFETCHES:          0 LATE PREFETCHES: 0 DROPPED PREFETCHES: 0
PSCL2 PREFETCHES SAME FILL-ORIGIN LEVEL: 0 DIFFERENT FILL-ORIGIN LEVEL: 0

LLC TOTAL     ACCESS:     539682  HIT:     345847  MISS:     193835  HIT %:    64.0835  MISS %:    35.9165   MPKI: 3.8767
LLC LOAD      ACCESS:     160065  HIT:      85742  MISS:      74323  HIT %:     53.567  MISS %:     46.433   MPKI: 1.48646
LLC RFO       ACCESS:      14522  HIT:       5798  MISS:       8724  HIT %:    39.9256  MISS %:    60.0744   MPKI: 0.17448
LLC PREFETCH  ACCESS:     206477  HIT:      98916  MISS:     107561  HIT %:    47.9065  MISS %:    52.0935   MPKI: 2.15122
LLC WRITEBACK ACCESS:     143133  HIT:     140844  MISS:       2289  HIT %:    98.4008  MISS %:    1.59921   MPKI: 0.04578
LLC LOAD TRANSLATION ACCESS:      15485  HIT:      14547  MISS:        938  HIT %:    93.9425  MISS %:    6.05747   MPKI: 0.01876
LLC PREFETCH  REQUESTED:          0  ISSUED:          0  USEFUL:      11209  USELESS:      97745
LLC USEFUL LOAD PREFETCHES:      11209 PREFETCH ISSUED TO LOWER LEVEL:     107561  ACCURACY: 10.4211
LLC TIMELY PREFETCHES:      11209 LATE PREFETCHES: 0 DROPPED PREFETCHES: 0
LLC PREFETCHES SAME FILL-ORIGIN LEVEL: 0 DIFFERENT FILL-ORIGIN LEVEL: 0
LLC AVERAGE MISS LATENCY: 172.848 cycles
LLC RQ	ACCESS:     190073	FORWARD:          0	MERGED:          0	TO_CACHE:     190073
LLC WQ	ACCESS:     143133	FORWARD:          0	MERGED:          0	TO_CACHE:     143133
LLC PQ	ACCESS:     206477	FORWARD:          0	MERGED:          0	TO_CACHE:     206477

LLC Dense regions hint to LLC: 0

RAW hits: 448034
Loads Generated: 11774763
Loads sent to L1D: 11326735
Stores Generated: 3924692
Stores sent to L1D: 3924692
Major fault: 0 Minor fault: 6477
Allocated PAGES: 6477

stream: 
stream:times selected: 2044790
stream:pref_filled: 319057
stream:pref_useful: 33469
stream:pref_late: 647
stream:misses: 58322
stream:misses_by_poll: 0

CS: 
CS:times selected: 173598
CS:pref_filled: 17092
CS:pref_useful: 12546
CS:pref_late: 9
CS:misses: 465
CS:misses_by_poll: 11

CPLX: 
CPLX:times selected: 1859717
CPLX:pref_filled: 111841
CPLX:pref_useful: 7386
CPLX:pref_late: 68
CPLX:misses: 248102
CPLX:misses_by_poll: 321

NL_L1: 
NL:times selected: 10689
NL:pref_filled: 3394
NL:pref_useful: 466
NL:pref_late: 7
NL:misses: 2617
NL:misses_by_poll: 0

total selections: 4088794
total_filled: 378827
total_useful: 45229
total_late: 864
total_polluted: 332
total_misses_after_warmup: 327082
conflicts: 411654
Degree Incremented Times: 20
Degree Decremented Times: 124559

L1 IP Table Write Accesses: 7528711
L1 IP Table Read Accesses: 7117057
L1 RST Write Accesses: 1715479
L1 RST Read Accesses: 3430958
L1 CSPT Write Accesses: 1715479
L1 CSPT Read Accesses: 3277455
L1 RR Filter Tag Write Accesses: 1281964
L1 RR Filter Tag Read Accesses: 68952250
L1 IP Table Tag Write Accesses: 8375991
L1 IP Table Tag Read Accesses: 8375991
L1 RST Tag Write Accesses: 0
L1 RST Tag Read Accesses: 15515898
L1 RR Filter Write Accesses: 0
L1 RR Filter Read Accesses: 2490884
test: 775594
L2 IP Table Read Accesses: 1347448
L2 IP Table Write Accesses: 1056208
L2 IP Table Tag Read Accesses: 676783
L2 IP Table Tag Write Accesses: 676783

DRAM Statistics
 CHANNEL 0
 RQ ROW_BUFFER_HIT:       5113  ROW_BUFFER_MISS:     186432
 DBUS_CONGESTED:          1
 WQ ROW_BUFFER_HIT:      12054  ROW_BUFFER_MISS:      70022  FULL:          0

 AVG_CONGESTED_CYCLE: 1
 All warmup complete: 2
Channel 0 Bank busy for read cycles: 0
Channel 0 Bank busy for write cycles: 0
Channel 0
Rank 0
0banks busy for read cycles: 71355995
0banks busy for write cycles: 45842
1banks busy for read cycles: 10262603
1banks busy for write cycles: 6129589
2banks busy for read cycles: 5423197
2banks busy for write cycles: 2138769
3banks busy for read cycles: 1447774
3banks busy for write cycles: 671594
4banks busy for read cycles: 450646
4banks busy for write cycles: 228234
5banks busy for read cycles: 124776
5banks busy for write cycles: 78912
6banks busy for read cycles: 40291
6banks busy for write cycles: 40974
7banks busy for read cycles: 11383
7banks busy for write cycles: 23591
8banks busy for read cycles: 2563
8banks busy for write cycles: 34854

CPU 0 Branch Prediction Accuracy: 87.3628% MPKI: 16.4726 Average ROB Occupancy at Mispredict: 21.6058
Branch types
NOT_BRANCH: 43482132 86.9643%
BRANCH_DIRECT_JUMP: 694882 1.38976%
BRANCH_INDIRECT: 93373 0.186746%
BRANCH_CONDITIONAL: 5609028 11.2181%
BRANCH_DIRECT_CALL: 37667 0.075334%
BRANCH_INDIRECT_CALL: 22444 0.044888%
BRANCH_RETURN: 60111 0.120222%
BRANCH_OTHER: 0 0%

@sumon_overall_L1D     45229       810    333603    378827   2563533   2563533
@Sumon_Early_by_class_L1D     27761     10617      6362         5
@Sumon_Late_by_class_L1D       603         9        66         5

@Sumon_Early_by_cycle_L1D      2046      2341       769       262       300      2404      5921      5926      6621      8927      6074      3638
@Sumon_Late_by_cycle_L1D       709        92         9         0         0         0         0         0         0         0         0         0
@Sumon_Early_stream_L1D      1816       997       248       183       230      1997      3869      3873      3334      4672      4163      2379
@Sumon_Early_CS_L1D        41      1262       476        28        27       102      1425      1374      2401      2612       343       526
@Sumon_Early_CPLX_L1D       163        74        44        44        38       266       540       606       812      1577      1499       699
@Sumon_Late_stream_L1D       511        83         9         0         0         0         0         0         0         0         0         0
@Sumon_Late_CS_L1D         7         2         0         0         0         0         0         0         0         0         0         0
@Sumon_Late_CPLX_L1D        60         6         0         0         0         0         0         0         0         0         0         0
@sumon_overall_L2C     17756         6    188610    206471      6807      6807
@Sumon_Early_by_class_L2C     11724       440      5207         0
@Sumon_Late_by_class_L2C         0         0         0         0

@Sumon_Early_by_cycle_L2C         8         9         2         0         0         3        29        49        49        44       392     17171
@Sumon_Late_by_cycle_L2C         4         2         0         0         0         0         0         0         0         0         0         0
@Sumon_Early_stream_L2C         0         0         0         0         0         0         0         0         0        21       245     11458
@Sumon_Early_CS_L2C         0         0         0         0         0         0         0         2         1         1         6       430
@Sumon_Early_CPLX_L2C         0         0         0         0         0         0         0         0         1        10       135      5061
@Sumon_Late_stream_L2C         0         0         0         0         0         0         0         0         0         0         0         0
@Sumon_Late_CS_L2C         0         0         0         0         0         0         0         0         0         0         0         0
@Sumon_Late_CPLX_L2C         0         0         0         0         0         0         0         0         0         0         0         0
DRAM PAGES: 1048576
Allocated PAGES: 6477
