
*** ChampSim Multicore Out-of-Order Simulator ***

Warmup Instructions: 10000000
Simulation Instructions: 50000000
Number of CPUs: 1
LLC sets: 2048
LLC ways: 16
Off-chip DRAM Size: 4096 MB Channels: 1 Width: 64-bit Data Rate: 6400 MT/s
CPU 0 runs traces/clientserver/client_007.champsimtrace.xz
.xz
CPU 0 Bimodal branch predictor
BTB has LRU replacement policy
ITLB has LRU replacement policy
DTLB has LRU replacement policy
STLB has LRU replacement policy
L1I has LRU replacement policy
IP Table Entries: 256
Initialize DRRIP state for L1D
IP_Table L2 entries: 256
Initialize DRRIP state for L2C
LLC has LRU replacement policy
Heartbeat CPU 0 instructions: 10000003 cycles: 3032846 heartbeat IPC: 3.29723 cumulative IPC: 3.29723 (Simulation time: 0 hr 8 min 55 sec) 

Warmup complete CPU 0 instructions: 10000003 cycles: 3032846 (Simulation time: 0 hr 8 min 55 sec) 

Heartbeat CPU 0 instructions: 20000003 cycles: 20086862 heartbeat IPC: 0.586372 cumulative IPC: 0.586372 (Simulation time: 0 hr 17 min 11 sec) 
Heartbeat CPU 0 instructions: 30000000 cycles: 36144969 heartbeat IPC: 0.622738 cumulative IPC: 0.604008 (Simulation time: 0 hr 27 min 33 sec) 
Heartbeat CPU 0 instructions: 40000003 cycles: 52472491 heartbeat IPC: 0.612463 cumulative IPC: 0.6068 (Simulation time: 0 hr 47 min 13 sec) 
Heartbeat CPU 0 instructions: 50000001 cycles: 69475838 heartbeat IPC: 0.588119 cumulative IPC: 0.60202 (Simulation time: 1 hr 4 min 40 sec) 
Heartbeat CPU 0 instructions: 60000003 cycles: 85305829 heartbeat IPC: 0.631712 cumulative IPC: 0.607733 (Simulation time: 1 hr 18 min 49 sec) 
Finished CPU 0 instructions: 50000000 cycles: 82272983 cumulative IPC: 0.607733 (Simulation time: 1 hr 18 min 49 sec) 

ChampSim completed all CPUs

Region of Interest Statistics

CPU 0 cumulative IPC: 0.607733 instructions: 50000000 cycles: 82272983
ITLB TOTAL     ACCESS:    8188893  HIT:    8037552  MISS:     151341  HIT %:    98.1519  MISS %:    1.84813   MPKI: 3.02682
ITLB LOAD TRANSLATION ACCESS:    8188893  HIT:    8037552  MISS:     151341  HIT %:    98.1519  MISS %:    1.84813   MPKI: 3.02682
ITLB PREFETCH  REQUESTED:          0  ISSUED:          0  USEFUL:          0  USELESS:          0
ITLB USEFUL LOAD PREFETCHES:          0 PREFETCH ISSUED TO LOWER LEVEL:          0  ACCURACY: -nan
ITLB TIMELY PREFETCHES:          0 LATE PREFETCHES: 0 DROPPED PREFETCHES: 0
ITLB PREFETCHES SAME FILL-ORIGIN LEVEL: 0 DIFFERENT FILL-ORIGIN LEVEL: 0
ITLB AVERAGE MISS LATENCY: 9.81632 cycles
ITLB RQ	ACCESS:    9761119	FORWARD:          0	MERGED:    1546729	TO_CACHE:    8214390

DTLB TOTAL     ACCESS:   13054807  HIT:   12731728  MISS:     323079  HIT %:    97.5252  MISS %:    2.47479   MPKI: 6.46158
DTLB LOAD TRANSLATION ACCESS:   13054807  HIT:   12731728  MISS:     323079  HIT %:    97.5252  MISS %:    2.47479   MPKI: 6.46158
DTLB PREFETCH  REQUESTED:          0  ISSUED:          0  USEFUL:          0  USELESS:          0
DTLB USEFUL LOAD PREFETCHES:          0 PREFETCH ISSUED TO LOWER LEVEL:          0  ACCURACY: -nan
DTLB TIMELY PREFETCHES:          0 LATE PREFETCHES: 0 DROPPED PREFETCHES: 0
DTLB PREFETCHES SAME FILL-ORIGIN LEVEL: 0 DIFFERENT FILL-ORIGIN LEVEL: 0
DTLB AVERAGE MISS LATENCY: 10.3814 cycles
DTLB RQ	ACCESS:   15136015	FORWARD:          0	MERGED:    2067078	TO_CACHE:   13068937

STLB TOTAL     ACCESS:    1390833  HIT:    1387075  MISS:       3758  HIT %:    99.7298  MISS %:   0.270198   MPKI: 0.07516
STLB LOAD TRANSLATION ACCESS:     474420  HIT:     470662  MISS:       3758  HIT %:    99.2079  MISS %:   0.792125   MPKI: 0.07516
STLB TRANSLATION FROM L1D PREFETCHER ACCESS:     916413  HIT:     916413  MISS:          0  HIT %:        100  MISS %:          0   MPKI: 0
STLB PREFETCH  REQUESTED:          0  ISSUED:          0  USEFUL:          0  USELESS:          0
STLB USEFUL LOAD PREFETCHES:          0 PREFETCH ISSUED TO LOWER LEVEL:          0  ACCURACY: -nan
STLB TIMELY PREFETCHES:          0 LATE PREFETCHES: 0 DROPPED PREFETCHES: 0
STLB PREFETCHES SAME FILL-ORIGIN LEVEL: 0 DIFFERENT FILL-ORIGIN LEVEL: 0
STLB AVERAGE MISS LATENCY: 149.173 cycles
STLB RQ	ACCESS:    1795537	FORWARD:          0	MERGED:     404704	TO_CACHE:    1390833

STLB Hit, L1D data hit: 0
STLB Hit, L2C data hit: 0
STLB Hit, LLC data hit: 0
STLB Hit, LLC data miss: 0
STLB STLB hints to L2: 0
L1D TOTAL     ACCESS:   16260453  HIT:   15100283  MISS:    1160170  HIT %:    92.8651  MISS %:    7.13492   MPKI: 23.2034
L1D LOAD      ACCESS:   10930851  HIT:   10345752  MISS:     585099  HIT %:    94.6473  MISS %:    5.35273   MPKI: 11.702
L1D RFO       ACCESS:    4052159  HIT:    3966691  MISS:      85468  HIT %:    97.8908  MISS %:     2.1092   MPKI: 1.70936
L1D PREFETCH  ACCESS:    1277443  HIT:     787840  MISS:     489603  HIT %:    61.6732  MISS %:    38.3268   MPKI: 9.79206
L1D PREFETCH  REQUESTED:    2642700  ISSUED:    2642439  USEFUL:     122162  USELESS:     367379
L1D USEFUL LOAD PREFETCHES:     122162 PREFETCH ISSUED TO LOWER LEVEL:     503407  ACCURACY: 24.267
L1D TIMELY PREFETCHES:     122162 LATE PREFETCHES: 13455 DROPPED PREFETCHES: 0
L1D PREFETCHES SAME FILL-ORIGIN LEVEL: 503407 DIFFERENT FILL-ORIGIN LEVEL: 0
L1D AVERAGE MISS LATENCY: 553127 cycles
L1D RQ	ACCESS:   14213425	FORWARD:          0	MERGED:    3176336	TO_CACHE:   10960157
L1D WQ	ACCESS:    4262314	FORWARD:      77135	MERGED:      86456	TO_CACHE:    4175858
L1D PQ	ACCESS:    1321322	FORWARD:          0	MERGED:          2	TO_CACHE:    1321117

L1D UNIQUE REGIONS ACCESSED: 0
L1D REGIONS CONFLICTS: 0
L1D Cross Page Prefetch Requests: 0
L1D Same Page Prefetch Requests: 1532119
L1D ROI Sum of L1D PQ occupancy: 17163309
L1D PREFETCHES PUSHED FROM L2C: 0
L1I TOTAL     ACCESS:    9430705  HIT:    8500919  MISS:     929786  HIT %:    90.1409  MISS %:    9.85914   MPKI: 18.5957
L1I LOAD      ACCESS:    9430705  HIT:    8500919  MISS:     929786  HIT %:    90.1409  MISS %:    9.85914   MPKI: 18.5957
L1I PREFETCH  REQUESTED:          0  ISSUED:          0  USEFUL:          0  USELESS:          0
L1I USEFUL LOAD PREFETCHES:          0 PREFETCH ISSUED TO LOWER LEVEL:          0  ACCURACY: -nan
L1I TIMELY PREFETCHES:          0 LATE PREFETCHES: 0 DROPPED PREFETCHES: 0
L1I PREFETCHES SAME FILL-ORIGIN LEVEL: 0 DIFFERENT FILL-ORIGIN LEVEL: 0
L1I AVERAGE MISS LATENCY: 16.2184 cycles
L1I RQ	ACCESS:   14295215	FORWARD:          0	MERGED:    4534096	TO_CACHE:    9761119

BTB TOTAL     ACCESS:    6697828  HIT:    6283947  MISS:     413881  HIT %:    93.8207  MISS %:    6.17933   MPKI: 8.27762
BTB BRANCH_DIRECT_JUMP	ACCESS:     755928  HIT:     751742  MISS:       4186
BTB BRANCH_INDIRECT	ACCESS:     348209  HIT:     188037  MISS:     160172
BTB BRANCH_CONDITIONAL	ACCESS:    4185150  HIT:    4172628  MISS:      12522
BTB BRANCH_DIRECT_CALL	ACCESS:     451943  HIT:     445427  MISS:       6516
BTB BRANCH_INDIRECT_CALL	ACCESS:     241100  HIT:     182621  MISS:      58479
BTB BRANCH_RETURN	ACCESS:     715498  HIT:     543492  MISS:     172006
BTB BRANCH_OTHER ACCESS:          0  HIT:          0  MISS:          0

L2C TOTAL     ACCESS:    2614971  HIT:    2410728  MISS:     204243  HIT %:    92.1895  MISS %:    7.81053   MPKI: 4.08486
L2C LOAD      ACCESS:    1501373  HIT:    1424402  MISS:      76971  HIT %:    94.8733  MISS %:    5.12671   MPKI: 1.53942
L2C DATA LOAD MPKI: 1.2531
L2C INSTRUCTION LOAD MPKI: 0.28632
L2C RFO       ACCESS:      84891  HIT:      47005  MISS:      37886  HIT %:     55.371  MISS %:     44.629   MPKI: 0.75772
L2C PREFETCH  ACCESS:     763836  HIT:     677456  MISS:      86380  HIT %:    88.6913  MISS %:    11.3087   MPKI: 1.7276
L2C DATA PREFETCH MPKI: 1.7276
L2C INSTRUCTION PREFETCH MPKI: 0
L2C WRITEBACK ACCESS:     260914  HIT:     259569  MISS:       1345  HIT %:    99.4845  MISS %:   0.515496   MPKI: 0.0269
L2C LOAD TRANSLATION ACCESS:       3957  HIT:       2296  MISS:       1661  HIT %:    58.0238  MISS %:    41.9762   MPKI: 0.03322
L2C PREFETCH  REQUESTED:     274506  ISSUED:     274506  USEFUL:      17255  USELESS:      67732
L2C USEFUL LOAD PREFETCHES:      17255 PREFETCH ISSUED TO LOWER LEVEL:      86888  ACCURACY: 19.8589
L2C TIMELY PREFETCHES:      17255 LATE PREFETCHES: 508 DROPPED PREFETCHES: 0
L2C PREFETCHES SAME FILL-ORIGIN LEVEL: 17751 DIFFERENT FILL-ORIGIN LEVEL: 0
L2C AVERAGE MISS LATENCY: 113.409 cycles
L2C RQ	ACCESS:    1590506	FORWARD:          0	MERGED:          0	TO_CACHE:    1590221
L2C WQ	ACCESS:     260914	FORWARD:        300	MERGED:          0	TO_CACHE:     260914
L2C PQ	ACCESS:     777913	FORWARD:          0	MERGED:      10116	TO_CACHE:     767782

L2C Instructions Evicting Data 12163
L2C Translations Evicting Data 1442
L2C Data Evicting Data 173701
L2C Instructions Evicting Instructions 1962
L2C Translations Evicting Instructions 189
L2C Data Evicting Instructions 11866
L2C Instructions Evicting Translations 191
L2C Translations Evicting Translations 30
L2C Data Evicting Translations 1354
L2C Dense regions hint from L2: 0
PSCL5 TOTAL     ACCESS:       3758  HIT:       3758  MISS:          0  HIT %:        100  MISS %:          0   MPKI: 0
PSCL5 LOAD TRANSLATION ACCESS:       3758  HIT:       3758  MISS:          0  HIT %:        100  MISS %:          0   MPKI: 0
PSCL5 PREFETCH  REQUESTED:          0  ISSUED:          0  USEFUL:          0  USELESS:          0
PSCL5 USEFUL LOAD PREFETCHES:          0 PREFETCH ISSUED TO LOWER LEVEL:          0  ACCURACY: -nan
PSCL5 TIMELY PREFETCHES:          0 LATE PREFETCHES: 0 DROPPED PREFETCHES: 0
PSCL5 PREFETCHES SAME FILL-ORIGIN LEVEL: 0 DIFFERENT FILL-ORIGIN LEVEL: 0

PSCL4 TOTAL     ACCESS:       3709  HIT:       3704  MISS:          5  HIT %:    99.8652  MISS %:   0.134807   MPKI: 0.0001
PSCL4 LOAD TRANSLATION ACCESS:       3709  HIT:       3704  MISS:          5  HIT %:    99.8652  MISS %:   0.134807   MPKI: 0.0001
PSCL4 PREFETCH  REQUESTED:          0  ISSUED:          0  USEFUL:          0  USELESS:          0
PSCL4 USEFUL LOAD PREFETCHES:          0 PREFETCH ISSUED TO LOWER LEVEL:          0  ACCURACY: -nan
PSCL4 TIMELY PREFETCHES:          0 LATE PREFETCHES: 0 DROPPED PREFETCHES: 0
PSCL4 PREFETCHES SAME FILL-ORIGIN LEVEL: 0 DIFFERENT FILL-ORIGIN LEVEL: 0

PSCL3 TOTAL     ACCESS:       3744  HIT:       3732  MISS:         12  HIT %:    99.6795  MISS %:   0.320513   MPKI: 0.00024
PSCL3 LOAD TRANSLATION ACCESS:       3744  HIT:       3732  MISS:         12  HIT %:    99.6795  MISS %:   0.320513   MPKI: 0.00024
PSCL3 PREFETCH  REQUESTED:          0  ISSUED:          0  USEFUL:          0  USELESS:          0
PSCL3 USEFUL LOAD PREFETCHES:          0 PREFETCH ISSUED TO LOWER LEVEL:          0  ACCURACY: -nan
PSCL3 TIMELY PREFETCHES:          0 LATE PREFETCHES: 0 DROPPED PREFETCHES: 0
PSCL3 PREFETCHES SAME FILL-ORIGIN LEVEL: 0 DIFFERENT FILL-ORIGIN LEVEL: 0

PSCL2 TOTAL     ACCESS:       3758  HIT:       3573  MISS:        185  HIT %:    95.0772  MISS %:    4.92283   MPKI: 0.0037
PSCL2 LOAD TRANSLATION ACCESS:       3758  HIT:       3573  MISS:        185  HIT %:    95.0772  MISS %:    4.92283   MPKI: 0.0037
PSCL2 PREFETCH  REQUESTED:          0  ISSUED:          0  USEFUL:          0  USELESS:          0
PSCL2 USEFUL LOAD PREFETCHES:          0 PREFETCH ISSUED TO LOWER LEVEL:          0  ACCURACY: -nan
PSCL2 TIMELY PREFETCHES:          0 LATE PREFETCHES: 0 DROPPED PREFETCHES: 0
PSCL2 PREFETCHES SAME FILL-ORIGIN LEVEL: 0 DIFFERENT FILL-ORIGIN LEVEL: 0

LLC TOTAL     ACCESS:     270694  HIT:     168441  MISS:     102253  HIT %:    62.2256  MISS %:    37.7744   MPKI: 2.04506
LLC LOAD      ACCESS:      76480  HIT:      44870  MISS:      31610  HIT %:    58.6689  MISS %:    41.3311   MPKI: 0.6322
LLC RFO       ACCESS:      37869  HIT:       6006  MISS:      31863  HIT %:    15.8599  MISS %:    84.1401   MPKI: 0.63726
LLC PREFETCH  ACCESS:      86888  HIT:      49908  MISS:      36980  HIT %:    57.4395  MISS %:    42.5605   MPKI: 0.7396
LLC WRITEBACK ACCESS:      67796  HIT:      67309  MISS:        487  HIT %:    99.2817  MISS %:   0.718331   MPKI: 0.00974
LLC LOAD TRANSLATION ACCESS:       1661  HIT:        348  MISS:       1313  HIT %:    20.9512  MISS %:    79.0488   MPKI: 0.02626
LLC PREFETCH  REQUESTED:          0  ISSUED:          0  USEFUL:       5354  USELESS:      25384
LLC USEFUL LOAD PREFETCHES:       5354 PREFETCH ISSUED TO LOWER LEVEL:      36980  ACCURACY: 14.4781
LLC TIMELY PREFETCHES:       5354 LATE PREFETCHES: 0 DROPPED PREFETCHES: 0
LLC PREFETCHES SAME FILL-ORIGIN LEVEL: 0 DIFFERENT FILL-ORIGIN LEVEL: 0
LLC AVERAGE MISS LATENCY: 166.898 cycles
LLC RQ	ACCESS:     116010	FORWARD:          0	MERGED:          0	TO_CACHE:     116010
LLC WQ	ACCESS:      67796	FORWARD:          0	MERGED:          0	TO_CACHE:      67796
LLC PQ	ACCESS:      86888	FORWARD:          0	MERGED:          0	TO_CACHE:      86888

LLC Dense regions hint to LLC: 0

RAW hits: 727665
Loads Generated: 14941095
Loads sent to L1D: 14213425
Stores Generated: 4262313
Stores sent to L1D: 4262314
Major fault: 0 Minor fault: 3373
Allocated PAGES: 3373

stream: 
stream:times selected: 1734708
stream:pref_filled: 331528
stream:pref_useful: 47340
stream:pref_late: 5628
stream:misses: 44189
stream:misses_by_poll: 0

CS: 
CS:times selected: 205178
CS:pref_filled: 103518
CS:pref_useful: 76264
CS:pref_late: 3153
CS:misses: 19067
CS:misses_by_poll: 163

CPLX: 
CPLX:times selected: 1521696
CPLX:pref_filled: 107714
CPLX:pref_useful: 14049
CPLX:pref_late: 2446
CPLX:misses: 188071
CPLX:misses_by_poll: 134

NL_L1: 
NL:times selected: 9578
NL:pref_filled: 2189
NL:pref_useful: 337
NL:pref_late: 25
NL:misses: 1646
NL:misses_by_poll: 0

total selections: 3471160
total_filled: 489603
total_useful: 122162
total_late: 14335
total_polluted: 297
total_misses_after_warmup: 614405
conflicts: 1946373
Degree Incremented Times: 4217
Degree Decremented Times: 187244

L1 IP Table Write Accesses: 8142954
L1 IP Table Read Accesses: 6196581
L1 RST Write Accesses: 1481043
L1 RST Read Accesses: 2962086
L1 CSPT Write Accesses: 1481043
L1 CSPT Read Accesses: 2763217
L1 RR Filter Tag Write Accesses: 1321583
L1 RR Filter Tag Read Accesses: 67837677
L1 IP Table Tag Write Accesses: 10960157
L1 IP Table Tag Read Accesses: 10960157
L1 RST Tag Write Accesses: 0
L1 RST Tag Read Accesses: 13510517
L1 RR Filter Write Accesses: 0
L1 RR Filter Read Accesses: 2458357
test: 581903
L2 IP Table Read Accesses: 1882255
L2 IP Table Write Accesses: 1736357
L2 IP Table Tag Read Accesses: 1069660
L2 IP Table Tag Write Accesses: 1069660

DRAM Statistics
 CHANNEL 0
 RQ ROW_BUFFER_HIT:      16820  ROW_BUFFER_MISS:      84945
 DBUS_CONGESTED:        109
 WQ ROW_BUFFER_HIT:      12523  ROW_BUFFER_MISS:      49927  FULL:          0

 AVG_CONGESTED_CYCLE: 5
 All warmup complete: 2
Channel 0 Bank busy for read cycles: 0
Channel 0 Bank busy for write cycles: 0
Channel 0
Rank 0
0banks busy for read cycles: 68196817
0banks busy for write cycles: 22306
1banks busy for read cycles: 5757412
1banks busy for write cycles: 2876123
2banks busy for read cycles: 1801043
2banks busy for write cycles: 830996
3banks busy for read cycles: 629103
3banks busy for write cycles: 450238
4banks busy for read cycles: 284445
4banks busy for write cycles: 302316
5banks busy for read cycles: 99075
5banks busy for write cycles: 200518
6banks busy for read cycles: 52412
6banks busy for write cycles: 179997
7banks busy for read cycles: 32613
7banks busy for write cycles: 190694
8banks busy for read cycles: 23472
8banks busy for write cycles: 343404

CPU 0 Branch Prediction Accuracy: 95.4787% MPKI: 8.10268 Average ROB Occupancy at Mispredict: 46.2088
Branch types
NOT_BRANCH: 41039506 82.079%
BRANCH_DIRECT_JUMP: 755928 1.51186%
BRANCH_INDIRECT: 348209 0.696418%
BRANCH_CONDITIONAL: 6447951 12.8959%
BRANCH_DIRECT_CALL: 451943 0.903886%
BRANCH_INDIRECT_CALL: 241100 0.4822%
BRANCH_RETURN: 715498 1.431%
BRANCH_OTHER: 0 0%

@sumon_overall_L1D    122162     13455    367379    489603   2642439   2642700
@Sumon_Early_by_class_L1D     37668     72375     11334        17
@Sumon_Late_by_class_L1D      4917      3142      2370        17

@Sumon_Early_by_cycle_L1D     59931     24906      7847      8022      2254      6974      3830      2897      1862      1827       957       855
@Sumon_Late_by_cycle_L1D     12408       896       139        10         2         0         0         0         0         0         0         0
@Sumon_Early_stream_L1D     16312      5978      3435      2587       790      3296      1395      1092       801       907       529       546
@Sumon_Early_CS_L1D     39795     16916      3298      5016      1082      2486      1811      1124       461       262        71        53
@Sumon_Early_CPLX_L1D      3596      1902       977       380       359      1105       579       648       567       622       349       250
@Sumon_Late_stream_L1D      4253       607        55         2         0         0         0         0         0         0         0         0
@Sumon_Late_CS_L1D      2827       242        68         4         1         0         0         0         0         0         0         0
@Sumon_Late_CPLX_L1D      2316        33        16         4         1         0         0         0         0         0         0         0
@sumon_overall_L2C     17255       508     67732     86380    274506    274506
@Sumon_Early_by_class_L2C      5808      2077      2600         0
@Sumon_Late_by_class_L2C         0        55         0         0

@Sumon_Early_by_cycle_L2C       824       505       564       321       265      1381       967       913       763      1428      1502      7822
@Sumon_Late_by_cycle_L2C       291       206        11         0         0         0         0         0         0         0         0         0
@Sumon_Early_stream_L2C        28        46        50        41        36       197       127       164       197       280       540      4102
@Sumon_Early_CS_L2C        19        26        41        83        43       140       346       207        94        97       145       836
@Sumon_Early_CPLX_L2C         2         2         8        12        10        50        65        83       153       236       302      1677
@Sumon_Late_stream_L2C         0         0         0         0         0         0         0         0         0         0         0         0
@Sumon_Late_CS_L2C         8        46         1         0         0         0         0         0         0         0         0         0
@Sumon_Late_CPLX_L2C         0         0         0         0         0         0         0         0         0         0         0         0
DRAM PAGES: 1048576
Allocated PAGES: 3373
