
*** ChampSim Multicore Out-of-Order Simulator ***

Warmup Instructions: 10000000
Simulation Instructions: 50000000
Number of CPUs: 1
LLC sets: 2048
LLC ways: 16
Off-chip DRAM Size: 4096 MB Channels: 1 Width: 64-bit Data Rate: 6400 MT/s
CPU 0 runs traces/clientserver/server_017.champsimtrace.xz
.xz
CPU 0 Bimodal branch predictor
BTB has LRU replacement policy
ITLB has LRU replacement policy
DTLB has LRU replacement policy
STLB has LRU replacement policy
L1I has LRU replacement policy
IP Table Entries: 256
Initialize DRRIP state for L1D
IP_Table L2 entries: 256
Initialize DRRIP state for L2C
LLC has LRU replacement policy
Heartbeat CPU 0 instructions: 10000000 cycles: 3153297 heartbeat IPC: 3.17128 cumulative IPC: 3.17128 (Simulation time: 0 hr 9 min 18 sec) 

Warmup complete CPU 0 instructions: 10000004 cycles: 3153298 (Simulation time: 0 hr 9 min 18 sec) 

Heartbeat CPU 0 instructions: 20000000 cycles: 27693845 heartbeat IPC: 0.407489 cumulative IPC: 0.407489 (Simulation time: 0 hr 21 min 58 sec) 
Heartbeat CPU 0 instructions: 30000001 cycles: 52107349 heartbeat IPC: 0.409609 cumulative IPC: 0.408546 (Simulation time: 0 hr 43 min 32 sec) 
Heartbeat CPU 0 instructions: 40000002 cycles: 76542761 heartbeat IPC: 0.409242 cumulative IPC: 0.408778 (Simulation time: 1 hr 8 min 14 sec) 
Heartbeat CPU 0 instructions: 50000001 cycles: 100833373 heartbeat IPC: 0.411682 cumulative IPC: 0.4095 (Simulation time: 1 hr 24 min 59 sec) 
Heartbeat CPU 0 instructions: 60000000 cycles: 125244385 heartbeat IPC: 0.409651 cumulative IPC: 0.40953 (Simulation time: 1 hr 39 min 1 sec) 
Finished CPU 0 instructions: 50000002 cycles: 122091102 cumulative IPC: 0.40953 (Simulation time: 1 hr 39 min 1 sec) 

ChampSim completed all CPUs

Region of Interest Statistics

CPU 0 cumulative IPC: 0.40953 instructions: 50000002 cycles: 122091102
ITLB TOTAL     ACCESS:    8950470  HIT:    8579203  MISS:     371267  HIT %:     95.852  MISS %:    4.14802   MPKI: 7.42534
ITLB LOAD TRANSLATION ACCESS:    8950470  HIT:    8579203  MISS:     371267  HIT %:     95.852  MISS %:    4.14802   MPKI: 7.42534
ITLB PREFETCH  REQUESTED:          0  ISSUED:          0  USEFUL:          0  USELESS:          0
ITLB USEFUL LOAD PREFETCHES:          0 PREFETCH ISSUED TO LOWER LEVEL:          0  ACCURACY: -nan
ITLB TIMELY PREFETCHES:          0 LATE PREFETCHES: 0 DROPPED PREFETCHES: 0
ITLB PREFETCHES SAME FILL-ORIGIN LEVEL: 0 DIFFERENT FILL-ORIGIN LEVEL: 0
ITLB AVERAGE MISS LATENCY: 9.54052 cycles
ITLB RQ	ACCESS:   10540321	FORWARD:          0	MERGED:    1469708	TO_CACHE:    9070613

DTLB TOTAL     ACCESS:   11647996  HIT:   11221073  MISS:     426923  HIT %:    96.3348  MISS %:    3.66521   MPKI: 8.53846
DTLB LOAD TRANSLATION ACCESS:   11647996  HIT:   11221073  MISS:     426923  HIT %:    96.3348  MISS %:    3.66521   MPKI: 8.53846
DTLB PREFETCH  REQUESTED:          0  ISSUED:          0  USEFUL:          0  USELESS:          0
DTLB USEFUL LOAD PREFETCHES:          0 PREFETCH ISSUED TO LOWER LEVEL:          0  ACCURACY: -nan
DTLB TIMELY PREFETCHES:          0 LATE PREFETCHES: 0 DROPPED PREFETCHES: 0
DTLB PREFETCHES SAME FILL-ORIGIN LEVEL: 0 DIFFERENT FILL-ORIGIN LEVEL: 0
DTLB AVERAGE MISS LATENCY: 23.9513 cycles
DTLB RQ	ACCESS:   16637601	FORWARD:          0	MERGED:    4918044	TO_CACHE:   11719557

STLB TOTAL     ACCESS:    1471004  HIT:    1432286  MISS:      38718  HIT %:    97.3679  MISS %:    2.63208   MPKI: 0.77436
STLB LOAD TRANSLATION ACCESS:     798190  HIT:     759472  MISS:      38718  HIT %:    95.1493  MISS %:    4.85072   MPKI: 0.77436
STLB TRANSLATION FROM L1D PREFETCHER ACCESS:     672814  HIT:     672814  MISS:          0  HIT %:        100  MISS %:          0   MPKI: 0
STLB PREFETCH  REQUESTED:          0  ISSUED:          0  USEFUL:          0  USELESS:          0
STLB USEFUL LOAD PREFETCHES:          0 PREFETCH ISSUED TO LOWER LEVEL:          0  ACCURACY: -nan
STLB TIMELY PREFETCHES:          0 LATE PREFETCHES: 0 DROPPED PREFETCHES: 0
STLB PREFETCHES SAME FILL-ORIGIN LEVEL: 0 DIFFERENT FILL-ORIGIN LEVEL: 0
STLB AVERAGE MISS LATENCY: 169.686 cycles
STLB RQ	ACCESS:    1560361	FORWARD:          0	MERGED:      89356	TO_CACHE:    1471005

STLB Hit, L1D data hit: 0
STLB Hit, L2C data hit: 0
STLB Hit, LLC data hit: 0
STLB Hit, LLC data miss: 0
STLB STLB hints to L2: 0
L1D TOTAL     ACCESS:   14757554  HIT:   12708856  MISS:    2048698  HIT %:    86.1176  MISS %:    13.8824   MPKI: 40.974
L1D LOAD      ACCESS:    7972042  HIT:    7325717  MISS:     646325  HIT %:    91.8926  MISS %:     8.1074   MPKI: 12.9265
L1D RFO       ACCESS:    6098356  HIT:    5137805  MISS:     960551  HIT %:     84.249  MISS %:     15.751   MPKI: 19.211
L1D PREFETCH  ACCESS:     687156  HIT:     245334  MISS:     441822  HIT %:    35.7028  MISS %:    64.2972   MPKI: 8.83644
L1D PREFETCH  REQUESTED:    1525996  ISSUED:    1524359  USEFUL:     320341  USELESS:     121484
L1D USEFUL LOAD PREFETCHES:     320341 PREFETCH ISSUED TO LOWER LEVEL:     497324  ACCURACY: 64.4129
L1D TIMELY PREFETCHES:     320341 LATE PREFETCHES: 55452 DROPPED PREFETCHES: 0
L1D PREFETCHES SAME FILL-ORIGIN LEVEL: 497324 DIFFERENT FILL-ORIGIN LEVEL: 0
L1D AVERAGE MISS LATENCY: 1.73276e+06 cycles
L1D RQ	ACCESS:   11502870	FORWARD:          0	MERGED:    3372704	TO_CACHE:    8012846
L1D WQ	ACCESS:    8685053	FORWARD:     117337	MERGED:      60298	TO_CACHE:    8624755
L1D PQ	ACCESS:     762188	FORWARD:          0	MERGED:          0	TO_CACHE:     762171

L1D UNIQUE REGIONS ACCESSED: 0
L1D REGIONS CONFLICTS: 0
L1D Cross Page Prefetch Requests: 0
L1D Same Page Prefetch Requests: 916094
L1D ROI Sum of L1D PQ occupancy: 12731913
L1D PREFETCHES PUSHED FROM L2C: 0
L1I TOTAL     ACCESS:    9823493  HIT:    7435520  MISS:    2387973  HIT %:    75.6912  MISS %:    24.3088   MPKI: 47.7595
L1I LOAD      ACCESS:    9823493  HIT:    7435520  MISS:    2387973  HIT %:    75.6912  MISS %:    24.3088   MPKI: 47.7595
L1I PREFETCH  REQUESTED:          0  ISSUED:          0  USEFUL:          0  USELESS:          0
L1I USEFUL LOAD PREFETCHES:          0 PREFETCH ISSUED TO LOWER LEVEL:          0  ACCURACY: -nan
L1I TIMELY PREFETCHES:          0 LATE PREFETCHES: 0 DROPPED PREFETCHES: 0
L1I PREFETCHES SAME FILL-ORIGIN LEVEL: 0 DIFFERENT FILL-ORIGIN LEVEL: 0
L1I AVERAGE MISS LATENCY: 16.717 cycles
L1I RQ	ACCESS:   14501594	FORWARD:          0	MERGED:    3961273	TO_CACHE:   10540321

BTB TOTAL     ACCESS:    5360496  HIT:    5095937  MISS:     264559  HIT %:    95.0647  MISS %:    4.93535   MPKI: 5.29118
BTB BRANCH_DIRECT_JUMP	ACCESS:     456444  HIT:     454688  MISS:       1756
BTB BRANCH_INDIRECT	ACCESS:      50083  HIT:      49903  MISS:        180
BTB BRANCH_CONDITIONAL	ACCESS:    3033031  HIT:    3027406  MISS:       5625
BTB BRANCH_DIRECT_CALL	ACCESS:     742789  HIT:     739175  MISS:       3614
BTB BRANCH_INDIRECT_CALL	ACCESS:     167677  HIT:     138914  MISS:      28763
BTB BRANCH_RETURN	ACCESS:     910472  HIT:     685851  MISS:     224621
BTB BRANCH_OTHER ACCESS:          0  HIT:          0  MISS:          0

L2C TOTAL     ACCESS:    6218874  HIT:    4393164  MISS:    1825710  HIT %:    70.6424  MISS %:    29.3576   MPKI: 36.5142
L2C LOAD      ACCESS:    2978803  HIT:    2586713  MISS:     392090  HIT %:    86.8373  MISS %:    13.1627   MPKI: 7.8418
L2C DATA LOAD MPKI: 5.58074
L2C INSTRUCTION LOAD MPKI: 2.26106
L2C RFO       ACCESS:     960359  HIT:      60880  MISS:     899479  HIT %:     6.3393  MISS %:    93.6607   MPKI: 17.9896
L2C PREFETCH  ACCESS:    1092124  HIT:     598701  MISS:     493423  HIT %:    54.8199  MISS %:    45.1801   MPKI: 9.86846
L2C DATA PREFETCH MPKI: 9.86846
L2C INSTRUCTION PREFETCH MPKI: 0
L2C WRITEBACK ACCESS:    1136255  HIT:    1125736  MISS:      10519  HIT %:    99.0742  MISS %:   0.925761   MPKI: 0.21038
L2C LOAD TRANSLATION ACCESS:      51333  HIT:      21134  MISS:      30199  HIT %:    41.1704  MISS %:    58.8296   MPKI: 0.60398
L2C PREFETCH  REQUESTED:     899474  ISSUED:     899473  USEFUL:      62756  USELESS:     431249
L2C USEFUL LOAD PREFETCHES:      62756 PREFETCH ISSUED TO LOWER LEVEL:     496556  ACCURACY: 12.6383
L2C TIMELY PREFETCHES:      62756 LATE PREFETCHES: 3133 DROPPED PREFETCHES: 0
L2C PREFETCHES SAME FILL-ORIGIN LEVEL: 376091 DIFFERENT FILL-ORIGIN LEVEL: 0
L2C AVERAGE MISS LATENCY: 199.994 cycles
L2C RQ	ACCESS:    3990726	FORWARD:          0	MERGED:          0	TO_CACHE:    3990498
L2C WQ	ACCESS:    1136255	FORWARD:        231	MERGED:          0	TO_CACHE:    1136255
L2C PQ	ACCESS:    1396754	FORWARD:          0	MERGED:      81763	TO_CACHE:    1314988

L2C Instructions Evicting Data 103394
L2C Translations Evicting Data 27696
L2C Data Evicting Data 1542058
L2C Instructions Evicting Instructions 7634
L2C Translations Evicting Instructions 2064
L2C Data Evicting Instructions 102364
L2C Instructions Evicting Translations 2025
L2C Translations Evicting Translations 439
L2C Data Evicting Translations 27517
L2C Dense regions hint from L2: 0
PSCL5 TOTAL     ACCESS:      38718  HIT:      38718  MISS:          0  HIT %:        100  MISS %:          0   MPKI: 0
PSCL5 LOAD TRANSLATION ACCESS:      38718  HIT:      38718  MISS:          0  HIT %:        100  MISS %:          0   MPKI: 0
PSCL5 PREFETCH  REQUESTED:          0  ISSUED:          0  USEFUL:          0  USELESS:          0
PSCL5 USEFUL LOAD PREFETCHES:          0 PREFETCH ISSUED TO LOWER LEVEL:          0  ACCURACY: -nan
PSCL5 TIMELY PREFETCHES:          0 LATE PREFETCHES: 0 DROPPED PREFETCHES: 0
PSCL5 PREFETCHES SAME FILL-ORIGIN LEVEL: 0 DIFFERENT FILL-ORIGIN LEVEL: 0

PSCL4 TOTAL     ACCESS:      37704  HIT:      37586  MISS:        118  HIT %:     99.687  MISS %:   0.312964   MPKI: 0.00236
PSCL4 LOAD TRANSLATION ACCESS:      37704  HIT:      37586  MISS:        118  HIT %:     99.687  MISS %:   0.312964   MPKI: 0.00236
PSCL4 PREFETCH  REQUESTED:          0  ISSUED:          0  USEFUL:          0  USELESS:          0
PSCL4 USEFUL LOAD PREFETCHES:          0 PREFETCH ISSUED TO LOWER LEVEL:          0  ACCURACY: -nan
PSCL4 TIMELY PREFETCHES:          0 LATE PREFETCHES: 0 DROPPED PREFETCHES: 0
PSCL4 PREFETCHES SAME FILL-ORIGIN LEVEL: 0 DIFFERENT FILL-ORIGIN LEVEL: 0

PSCL3 TOTAL     ACCESS:      38399  HIT:      37876  MISS:        523  HIT %:     98.638  MISS %:    1.36201   MPKI: 0.01046
PSCL3 LOAD TRANSLATION ACCESS:      38399  HIT:      37876  MISS:        523  HIT %:     98.638  MISS %:    1.36201   MPKI: 0.01046
PSCL3 PREFETCH  REQUESTED:          0  ISSUED:          0  USEFUL:          0  USELESS:          0
PSCL3 USEFUL LOAD PREFETCHES:          0 PREFETCH ISSUED TO LOWER LEVEL:          0  ACCURACY: -nan
PSCL3 TIMELY PREFETCHES:          0 LATE PREFETCHES: 0 DROPPED PREFETCHES: 0
PSCL3 PREFETCHES SAME FILL-ORIGIN LEVEL: 0 DIFFERENT FILL-ORIGIN LEVEL: 0

PSCL2 TOTAL     ACCESS:      38718  HIT:      26712  MISS:      12006  HIT %:    68.9912  MISS %:    31.0088   MPKI: 0.24012
PSCL2 LOAD TRANSLATION ACCESS:      38718  HIT:      26712  MISS:      12006  HIT %:    68.9912  MISS %:    31.0088   MPKI: 0.24012
PSCL2 PREFETCH  REQUESTED:          0  ISSUED:          0  USEFUL:          0  USELESS:          0
PSCL2 USEFUL LOAD PREFETCHES:          0 PREFETCH ISSUED TO LOWER LEVEL:          0  ACCURACY: -nan
PSCL2 TIMELY PREFETCHES:          0 LATE PREFETCHES: 0 DROPPED PREFETCHES: 0
PSCL2 PREFETCHES SAME FILL-ORIGIN LEVEL: 0 DIFFERENT FILL-ORIGIN LEVEL: 0

LLC TOTAL     ACCESS:    2877102  HIT:    1561536  MISS:    1315566  HIT %:    54.2746  MISS %:    45.7254   MPKI: 26.3113
LLC LOAD      ACCESS:     389625  HIT:     258895  MISS:     130730  HIT %:    66.4472  MISS %:    33.5528   MPKI: 2.6146
LLC RFO       ACCESS:     898806  HIT:     110392  MISS:     788414  HIT %:    12.2821  MISS %:    87.7179   MPKI: 15.7683
LLC PREFETCH  ACCESS:     496556  HIT:     118839  MISS:     377717  HIT %:    23.9326  MISS %:    76.0674   MPKI: 7.55434
LLC WRITEBACK ACCESS:    1061916  HIT:    1059799  MISS:       2117  HIT %:    99.8006  MISS %:   0.199357   MPKI: 0.04234
LLC LOAD TRANSLATION ACCESS:      30199  HIT:      13611  MISS:      16588  HIT %:     45.071  MISS %:     54.929   MPKI: 0.33176
LLC PREFETCH  REQUESTED:          0  ISSUED:          0  USEFUL:       9217  USELESS:     368730
LLC USEFUL LOAD PREFETCHES:       9217 PREFETCH ISSUED TO LOWER LEVEL:     377717  ACCURACY: 2.44019
LLC TIMELY PREFETCHES:       9217 LATE PREFETCHES: 0 DROPPED PREFETCHES: 0
LLC PREFETCHES SAME FILL-ORIGIN LEVEL: 0 DIFFERENT FILL-ORIGIN LEVEL: 0
LLC AVERAGE MISS LATENCY: 234.571 cycles
LLC RQ	ACCESS:    1318636	FORWARD:          0	MERGED:          0	TO_CACHE:    1318631
LLC WQ	ACCESS:    1061918	FORWARD:          5	MERGED:          0	TO_CACHE:    1061918
LLC PQ	ACCESS:     496556	FORWARD:          0	MERGED:          0	TO_CACHE:     496556

LLC Dense regions hint to LLC: 0

RAW hits: 883099
Loads Generated: 12385973
Loads sent to L1D: 11502870
Stores Generated: 8685030
Stores sent to L1D: 8685053
Major fault: 0 Minor fault: 17732
Allocated PAGES: 17732

stream: 
stream:times selected: 2324690
stream:pref_filled: 103639
stream:pref_useful: 11971
stream:pref_late: 3777
stream:misses: 20286
stream:misses_by_poll: 0

CS: 
CS:times selected: 2000972
CS:pref_filled: 383089
CS:pref_useful: 365608
CS:pref_late: 50111
CS:misses: 63866
CS:misses_by_poll: 683

CPLX: 
CPLX:times selected: 316463
CPLX:pref_filled: 34370
CPLX:pref_useful: 1023
CPLX:pref_late: 185
CPLX:misses: 61773
CPLX:misses_by_poll: 27

NL_L1: 
NL:times selected: 927
NL:pref_filled: 381
NL:pref_useful: 25
NL:pref_late: 13
NL:misses: 450
NL:misses_by_poll: 0

total selections: 4643052
total_filled: 441822
total_useful: 320341
total_late: 56067
total_polluted: 710
total_misses_after_warmup: 687130
conflicts: 2652877
Degree Incremented Times: 24678
Degree Decremented Times: 93914

L1 IP Table Write Accesses: 5186603
L1 IP Table Read Accesses: 2533726
L1 RST Write Accesses: 1932518
L1 RST Read Accesses: 3865036
L1 CSPT Write Accesses: 1932518
L1 CSPT Read Accesses: 2193917
L1 RR Filter Tag Write Accesses: 763825
L1 RR Filter Tag Read Accesses: 213138378
L1 IP Table Tag Write Accesses: 8012847
L1 IP Table Tag Read Accesses: 8012847
L1 RST Tag Write Accesses: 0
L1 RST Tag Read Accesses: 17723531
L1 RR Filter Write Accesses: 0
L1 RR Filter Read Accesses: 6946398
test: 163172
L2 IP Table Read Accesses: 1322312
L2 IP Table Write Accesses: 1464137
L2 IP Table Tag Read Accesses: 864711
L2 IP Table Tag Write Accesses: 864711

DRAM Statistics
 CHANNEL 0
 RQ ROW_BUFFER_HIT:     429607  ROW_BUFFER_MISS:     883757
 DBUS_CONGESTED:        474
 WQ ROW_BUFFER_HIT:     271154  ROW_BUFFER_MISS:     600540  FULL:          0

 AVG_CONGESTED_CYCLE: 3
 All warmup complete: 2
Channel 0 Bank busy for read cycles: 0
Channel 0 Bank busy for write cycles: 0
Channel 0
Rank 0
0banks busy for read cycles: 40416235
0banks busy for write cycles: 50690
1banks busy for read cycles: 15695967
1banks busy for write cycles: 6422761
2banks busy for read cycles: 10332527
2banks busy for write cycles: 3901806
3banks busy for read cycles: 6452097
3banks busy for write cycles: 2694287
4banks busy for read cycles: 6699411
4banks busy for write cycles: 2063218
5banks busy for read cycles: 2212427
5banks busy for write cycles: 1610951
6banks busy for read cycles: 1977682
6banks busy for write cycles: 1432681
7banks busy for read cycles: 1603065
7banks busy for write cycles: 2029548
8banks busy for read cycles: 5081220
8banks busy for write cycles: 11414530

CPU 0 Branch Prediction Accuracy: 96.293% MPKI: 6.14724 Average ROB Occupancy at Mispredict: 52.3393
Branch types
NOT_BRANCH: 41708620 83.4172%
BRANCH_DIRECT_JUMP: 456444 0.912888%
BRANCH_INDIRECT: 50083 0.100166%
BRANCH_CONDITIONAL: 5963860 11.9277%
BRANCH_DIRECT_CALL: 742789 1.48558%
BRANCH_INDIRECT_CALL: 167677 0.335354%
BRANCH_RETURN: 910472 1.82094%
BRANCH_OTHER: 0 0%

@sumon_overall_L1D    320341     55452    121484    441822   1524359   1525996
@Sumon_Early_by_class_L1D      9170    309019       809        12
@Sumon_Late_by_class_L1D      3242     50103       138        12

@Sumon_Early_by_cycle_L1D    162080    142171     12402      1072       203       742       216       133       385       861        61        15
@Sumon_Late_by_cycle_L1D     35276     15922      4066       188         0         0         0         0         0         0         0         0
@Sumon_Early_stream_L1D      7127       400        88        11        44       534        97        53        38       708        55        15
@Sumon_Early_CS_L1D    153563    141548     12242       993       109        49        44        26       338       105         2         0
@Sumon_Early_CPLX_L1D       279        90        37        60        43       148        65        37         7        40         3         0
@Sumon_Late_stream_L1D      1368      1869         5         0         0         0         0         0         0         0         0         0
@Sumon_Late_CS_L1D     32850     13004      4061       188         0         0         0         0         0         0         0         0
@Sumon_Late_CPLX_L1D        52        86         0         0         0         0         0         0         0         0         0         0
@sumon_overall_L2C     62756      3133    431249    493423    899473    899474
@Sumon_Early_by_class_L2C      1643      4188       558         0
@Sumon_Late_by_class_L2C         0       617         0         0

@Sumon_Early_by_cycle_L2C      8064      8566      6595      2307      1725     12923      2891       704      5867      2746      2760      7608
@Sumon_Late_by_cycle_L2C      1832      1286        15         0         0         0         0         0         0         0         0         0
@Sumon_Early_stream_L2C         4         2         3         5         1        23        33        18        40       387       385       742
@Sumon_Early_CS_L2C       734      1282       780       169        10        54        64       105       404       186       111       289
@Sumon_Early_CPLX_L2C         0         9         3         7         9        49        63       130        24        32        30       202
@Sumon_Late_stream_L2C         0         0         0         0         0         0         0         0         0         0         0         0
@Sumon_Late_CS_L2C       289       319         9         0         0         0         0         0         0         0         0         0
@Sumon_Late_CPLX_L2C         0         0         0         0         0         0         0         0         0         0         0         0
DRAM PAGES: 1048576
Allocated PAGES: 17732
