
*** ChampSim Multicore Out-of-Order Simulator ***

Warmup Instructions: 10000000
Simulation Instructions: 50000000
Number of CPUs: 1
LLC sets: 2048
LLC ways: 16
Off-chip DRAM Size: 4096 MB Channels: 1 Width: 64-bit Data Rate: 6400 MT/s
CPU 0 runs traces/clientserver/server_020.champsimtrace.xz
.xz
CPU 0 Bimodal branch predictor
BTB has LRU replacement policy
ITLB has LRU replacement policy
DTLB has LRU replacement policy
STLB has LRU replacement policy
L1I has LRU replacement policy
IP Table Entries: 256
Initialize DRRIP state for L1D
IP_Table L2 entries: 256
Initialize DRRIP state for L2C
LLC has LRU replacement policy
Heartbeat CPU 0 instructions: 10000003 cycles: 3151061 heartbeat IPC: 3.17354 cumulative IPC: 3.17354 (Simulation time: 0 hr 9 min 20 sec) 

Warmup complete CPU 0 instructions: 10000003 cycles: 3151061 (Simulation time: 0 hr 9 min 20 sec) 

Heartbeat CPU 0 instructions: 20000001 cycles: 27176474 heartbeat IPC: 0.416226 cumulative IPC: 0.416226 (Simulation time: 0 hr 21 min 52 sec) 
Heartbeat CPU 0 instructions: 30000000 cycles: 51225550 heartbeat IPC: 0.415816 cumulative IPC: 0.416021 (Simulation time: 0 hr 43 min 42 sec) 
Heartbeat CPU 0 instructions: 40000001 cycles: 75291611 heartbeat IPC: 0.415523 cumulative IPC: 0.415855 (Simulation time: 1 hr 8 min 33 sec) 
Heartbeat CPU 0 instructions: 50000000 cycles: 99325682 heartbeat IPC: 0.416076 cumulative IPC: 0.41591 (Simulation time: 1 hr 25 min 16 sec) 
Heartbeat CPU 0 instructions: 60000000 cycles: 123339126 heartbeat IPC: 0.416433 cumulative IPC: 0.416015 (Simulation time: 1 hr 39 min 21 sec) 
Finished CPU 0 instructions: 50000003 cycles: 120188072 cumulative IPC: 0.416015 (Simulation time: 1 hr 39 min 21 sec) 

ChampSim completed all CPUs

Region of Interest Statistics

CPU 0 cumulative IPC: 0.416015 instructions: 50000003 cycles: 120188072
ITLB TOTAL     ACCESS:    8950113  HIT:    8578734  MISS:     371379  HIT %:    95.8506  MISS %:    4.14943   MPKI: 7.42758
ITLB LOAD TRANSLATION ACCESS:    8950113  HIT:    8578734  MISS:     371379  HIT %:    95.8506  MISS %:    4.14943   MPKI: 7.42758
ITLB PREFETCH  REQUESTED:          0  ISSUED:          0  USEFUL:          0  USELESS:          0
ITLB USEFUL LOAD PREFETCHES:          0 PREFETCH ISSUED TO LOWER LEVEL:          0  ACCURACY: -nan
ITLB TIMELY PREFETCHES:          0 LATE PREFETCHES: 0 DROPPED PREFETCHES: 0
ITLB PREFETCHES SAME FILL-ORIGIN LEVEL: 0 DIFFERENT FILL-ORIGIN LEVEL: 0
ITLB AVERAGE MISS LATENCY: 9.47925 cycles
ITLB RQ	ACCESS:   10538978	FORWARD:          0	MERGED:    1468756	TO_CACHE:    9070222

DTLB TOTAL     ACCESS:   11649368  HIT:   11226708  MISS:     422660  HIT %:    96.3718  MISS %:    3.62818   MPKI: 8.4532
DTLB LOAD TRANSLATION ACCESS:   11649368  HIT:   11226708  MISS:     422660  HIT %:    96.3718  MISS %:    3.62818   MPKI: 8.4532
DTLB PREFETCH  REQUESTED:          0  ISSUED:          0  USEFUL:          0  USELESS:          0
DTLB USEFUL LOAD PREFETCHES:          0 PREFETCH ISSUED TO LOWER LEVEL:          0  ACCURACY: -nan
DTLB TIMELY PREFETCHES:          0 LATE PREFETCHES: 0 DROPPED PREFETCHES: 0
DTLB PREFETCHES SAME FILL-ORIGIN LEVEL: 0 DIFFERENT FILL-ORIGIN LEVEL: 0
DTLB AVERAGE MISS LATENCY: 18.8573 cycles
DTLB RQ	ACCESS:   16638193	FORWARD:          0	MERGED:    4917258	TO_CACHE:   11720935

STLB TOTAL     ACCESS:    1471624  HIT:    1438811  MISS:      32813  HIT %:    97.7703  MISS %:    2.22971   MPKI: 0.65626
STLB LOAD TRANSLATION ACCESS:     794039  HIT:     761226  MISS:      32813  HIT %:    95.8676  MISS %:    4.13242   MPKI: 0.65626
STLB TRANSLATION FROM L1D PREFETCHER ACCESS:     677585  HIT:     677585  MISS:          0  HIT %:        100  MISS %:          0   MPKI: 0
STLB PREFETCH  REQUESTED:          0  ISSUED:          0  USEFUL:          0  USELESS:          0
STLB USEFUL LOAD PREFETCHES:          0 PREFETCH ISSUED TO LOWER LEVEL:          0  ACCURACY: -nan
STLB TIMELY PREFETCHES:          0 LATE PREFETCHES: 0 DROPPED PREFETCHES: 0
STLB PREFETCHES SAME FILL-ORIGIN LEVEL: 0 DIFFERENT FILL-ORIGIN LEVEL: 0
STLB AVERAGE MISS LATENCY: 131.959 cycles
STLB RQ	ACCESS:    1562686	FORWARD:          0	MERGED:      91062	TO_CACHE:    1471624

STLB Hit, L1D data hit: 0
STLB Hit, L2C data hit: 0
STLB Hit, LLC data hit: 0
STLB Hit, LLC data miss: 0
STLB STLB hints to L2: 0
L1D TOTAL     ACCESS:   14753971  HIT:   12701311  MISS:    2052660  HIT %:    86.0874  MISS %:    13.9126   MPKI: 41.0532
L1D LOAD      ACCESS:    7968256  HIT:    7324389  MISS:     643867  HIT %:    91.9196  MISS %:     8.0804   MPKI: 12.8773
L1D RFO       ACCESS:    6092687  HIT:    5130457  MISS:     962230  HIT %:    84.2068  MISS %:    15.7932   MPKI: 19.2446
L1D PREFETCH  ACCESS:     693028  HIT:     246465  MISS:     446563  HIT %:    35.5635  MISS %:    64.4365   MPKI: 8.93126
L1D PREFETCH  REQUESTED:    1538898  ISSUED:    1537313  USEFUL:     320095  USELESS:     126468
L1D USEFUL LOAD PREFETCHES:     320095 PREFETCH ISSUED TO LOWER LEVEL:     502326  ACCURACY: 63.7226
L1D TIMELY PREFETCHES:     320095 LATE PREFETCHES: 55753 DROPPED PREFETCHES: 0
L1D PREFETCHES SAME FILL-ORIGIN LEVEL: 502326 DIFFERENT FILL-ORIGIN LEVEL: 0
L1D AVERAGE MISS LATENCY: 1.72123e+06 cycles
L1D RQ	ACCESS:   11498718	FORWARD:          0	MERGED:    3372061	TO_CACHE:    8009094
L1D WQ	ACCESS:    8689751	FORWARD:     117582	MERGED:      60652	TO_CACHE:    8629099
L1D PQ	ACCESS:     768666	FORWARD:          0	MERGED:          0	TO_CACHE:     768647

L1D UNIQUE REGIONS ACCESSED: 0
L1D REGIONS CONFLICTS: 0
L1D Cross Page Prefetch Requests: 0
L1D Same Page Prefetch Requests: 929763
L1D ROI Sum of L1D PQ occupancy: 12902799
L1D PREFETCHES PUSHED FROM L2C: 0
L1I TOTAL     ACCESS:    9823214  HIT:    7436002  MISS:    2387212  HIT %:    75.6983  MISS %:    24.3017   MPKI: 47.7442
L1I LOAD      ACCESS:    9823214  HIT:    7436002  MISS:    2387212  HIT %:    75.6983  MISS %:    24.3017   MPKI: 47.7442
L1I PREFETCH  REQUESTED:          0  ISSUED:          0  USEFUL:          0  USELESS:          0
L1I USEFUL LOAD PREFETCHES:          0 PREFETCH ISSUED TO LOWER LEVEL:          0  ACCURACY: -nan
L1I TIMELY PREFETCHES:          0 LATE PREFETCHES: 0 DROPPED PREFETCHES: 0
L1I PREFETCHES SAME FILL-ORIGIN LEVEL: 0 DIFFERENT FILL-ORIGIN LEVEL: 0
L1I AVERAGE MISS LATENCY: 16.7703 cycles
L1I RQ	ACCESS:   14499325	FORWARD:          0	MERGED:    3960347	TO_CACHE:   10538978

BTB TOTAL     ACCESS:    5369972  HIT:    5103286  MISS:     266686  HIT %:    95.0338  MISS %:    4.96625   MPKI: 5.33372
BTB BRANCH_DIRECT_JUMP	ACCESS:     456401  HIT:     454412  MISS:       1989
BTB BRANCH_INDIRECT	ACCESS:      50013  HIT:      49833  MISS:        180
BTB BRANCH_CONDITIONAL	ACCESS:    3043084  HIT:    3036854  MISS:       6230
BTB BRANCH_DIRECT_CALL	ACCESS:     742782  HIT:     738717  MISS:       4065
BTB BRANCH_INDIRECT_CALL	ACCESS:     167454  HIT:     138660  MISS:      28794
BTB BRANCH_RETURN	ACCESS:     910238  HIT:     684810  MISS:     225428
BTB BRANCH_OTHER ACCESS:          0  HIT:          0  MISS:          0

L2C TOTAL     ACCESS:    6210534  HIT:    4382704  MISS:    1827830  HIT %:    70.5689  MISS %:    29.4311   MPKI: 36.5566
L2C LOAD      ACCESS:    2975283  HIT:    2579876  MISS:     395407  HIT %:    86.7103  MISS %:    13.2897   MPKI: 7.90814
L2C DATA LOAD MPKI: 5.62874
L2C INSTRUCTION LOAD MPKI: 2.2794
L2C RFO       ACCESS:     962038  HIT:      58715  MISS:     903323  HIT %:    6.10319  MISS %:    93.8968   MPKI: 18.0665
L2C PREFETCH  ACCESS:    1098295  HIT:     599441  MISS:     498854  HIT %:    54.5792  MISS %:    45.4208   MPKI: 9.97708
L2C DATA PREFETCH MPKI: 9.97708
L2C INSTRUCTION PREFETCH MPKI: 0
L2C WRITEBACK ACCESS:    1138709  HIT:    1126895  MISS:      11814  HIT %:    98.9625  MISS %:    1.03749   MPKI: 0.23628
L2C LOAD TRANSLATION ACCESS:      36209  HIT:      17777  MISS:      18432  HIT %:    49.0955  MISS %:    50.9045   MPKI: 0.36864
L2C PREFETCH  REQUESTED:     899963  ISSUED:     899963  USEFUL:      63289  USELESS:     435794
L2C USEFUL LOAD PREFETCHES:      63289 PREFETCH ISSUED TO LOWER LEVEL:     502027  ACCURACY: 12.6067
L2C TIMELY PREFETCHES:      63289 LATE PREFETCHES: 3173 DROPPED PREFETCHES: 0
L2C PREFETCHES SAME FILL-ORIGIN LEVEL: 376597 DIFFERENT FILL-ORIGIN LEVEL: 0
L2C AVERAGE MISS LATENCY: 199.646 cycles
L2C RQ	ACCESS:    3973755	FORWARD:          0	MERGED:          0	TO_CACHE:    3973530
L2C WQ	ACCESS:    1138709	FORWARD:        227	MERGED:          0	TO_CACHE:    1138709
L2C PQ	ACCESS:    1402289	FORWARD:          0	MERGED:      81867	TO_CACHE:    1320420

L2C Instructions Evicting Data 100592
L2C Translations Evicting Data 17222
L2C Data Evicting Data 1566610
L2C Instructions Evicting Instructions 12363
L2C Translations Evicting Instructions 1005
L2C Data Evicting Instructions 99951
L2C Instructions Evicting Translations 1015
L2C Translations Evicting Translations 205
L2C Data Evicting Translations 17053
L2C Dense regions hint from L2: 0
PSCL5 TOTAL     ACCESS:      32813  HIT:      32813  MISS:          0  HIT %:        100  MISS %:          0   MPKI: 0
PSCL5 LOAD TRANSLATION ACCESS:      32813  HIT:      32813  MISS:          0  HIT %:        100  MISS %:          0   MPKI: 0
PSCL5 PREFETCH  REQUESTED:          0  ISSUED:          0  USEFUL:          0  USELESS:          0
PSCL5 USEFUL LOAD PREFETCHES:          0 PREFETCH ISSUED TO LOWER LEVEL:          0  ACCURACY: -nan
PSCL5 TIMELY PREFETCHES:          0 LATE PREFETCHES: 0 DROPPED PREFETCHES: 0
PSCL5 PREFETCHES SAME FILL-ORIGIN LEVEL: 0 DIFFERENT FILL-ORIGIN LEVEL: 0

PSCL4 TOTAL     ACCESS:      32161  HIT:      32064  MISS:         97  HIT %:    99.6984  MISS %:   0.301608   MPKI: 0.00194
PSCL4 LOAD TRANSLATION ACCESS:      32161  HIT:      32064  MISS:         97  HIT %:    99.6984  MISS %:   0.301608   MPKI: 0.00194
PSCL4 PREFETCH  REQUESTED:          0  ISSUED:          0  USEFUL:          0  USELESS:          0
PSCL4 USEFUL LOAD PREFETCHES:          0 PREFETCH ISSUED TO LOWER LEVEL:          0  ACCURACY: -nan
PSCL4 TIMELY PREFETCHES:          0 LATE PREFETCHES: 0 DROPPED PREFETCHES: 0
PSCL4 PREFETCHES SAME FILL-ORIGIN LEVEL: 0 DIFFERENT FILL-ORIGIN LEVEL: 0

PSCL3 TOTAL     ACCESS:      32547  HIT:      32450  MISS:         97  HIT %:     99.702  MISS %:   0.298031   MPKI: 0.00194
PSCL3 LOAD TRANSLATION ACCESS:      32547  HIT:      32450  MISS:         97  HIT %:     99.702  MISS %:   0.298031   MPKI: 0.00194
PSCL3 PREFETCH  REQUESTED:          0  ISSUED:          0  USEFUL:          0  USELESS:          0
PSCL3 USEFUL LOAD PREFETCHES:          0 PREFETCH ISSUED TO LOWER LEVEL:          0  ACCURACY: -nan
PSCL3 TIMELY PREFETCHES:          0 LATE PREFETCHES: 0 DROPPED PREFETCHES: 0
PSCL3 PREFETCHES SAME FILL-ORIGIN LEVEL: 0 DIFFERENT FILL-ORIGIN LEVEL: 0

PSCL2 TOTAL     ACCESS:      32813  HIT:      29586  MISS:       3227  HIT %:    90.1655  MISS %:    9.83452   MPKI: 0.06454
PSCL2 LOAD TRANSLATION ACCESS:      32813  HIT:      29586  MISS:       3227  HIT %:    90.1655  MISS %:    9.83452   MPKI: 0.06454
PSCL2 PREFETCH  REQUESTED:          0  ISSUED:          0  USEFUL:          0  USELESS:          0
PSCL2 USEFUL LOAD PREFETCHES:          0 PREFETCH ISSUED TO LOWER LEVEL:          0  ACCURACY: -nan
PSCL2 TIMELY PREFETCHES:          0 LATE PREFETCHES: 0 DROPPED PREFETCHES: 0
PSCL2 PREFETCHES SAME FILL-ORIGIN LEVEL: 0 DIFFERENT FILL-ORIGIN LEVEL: 0

LLC TOTAL     ACCESS:    2882387  HIT:    1572789  MISS:    1309598  HIT %:    54.5655  MISS %:    45.4345   MPKI: 26.192
LLC LOAD      ACCESS:     392907  HIT:     262832  MISS:     130075  HIT %:    66.8942  MISS %:    33.1058   MPKI: 2.6015
LLC RFO       ACCESS:     902648  HIT:     113744  MISS:     788904  HIT %:    12.6011  MISS %:    87.3989   MPKI: 15.7781
LLC PREFETCH  ACCESS:     502027  HIT:     121976  MISS:     380051  HIT %:    24.2967  MISS %:    75.7033   MPKI: 7.60102
LLC WRITEBACK ACCESS:    1066373  HIT:    1064423  MISS:       1950  HIT %:    99.8171  MISS %:   0.182863   MPKI: 0.039
LLC LOAD TRANSLATION ACCESS:      18432  HIT:       9814  MISS:       8618  HIT %:    53.2444  MISS %:    46.7556   MPKI: 0.17236
LLC PREFETCH  REQUESTED:          0  ISSUED:          0  USEFUL:       9392  USELESS:     370543
LLC USEFUL LOAD PREFETCHES:       9392 PREFETCH ISSUED TO LOWER LEVEL:     380051  ACCURACY: 2.47125
LLC TIMELY PREFETCHES:       9392 LATE PREFETCHES: 0 DROPPED PREFETCHES: 0
LLC PREFETCHES SAME FILL-ORIGIN LEVEL: 0 DIFFERENT FILL-ORIGIN LEVEL: 0
LLC AVERAGE MISS LATENCY: 235.494 cycles
LLC RQ	ACCESS:    1313989	FORWARD:          0	MERGED:          0	TO_CACHE:    1313987
LLC WQ	ACCESS:    1066373	FORWARD:          2	MERGED:          0	TO_CACHE:    1066373
LLC PQ	ACCESS:     502027	FORWARD:          0	MERGED:          0	TO_CACHE:     502027

LLC Dense regions hint to LLC: 0

RAW hits: 880804
Loads Generated: 12379521
Loads sent to L1D: 11498718
Stores Generated: 8689727
Stores sent to L1D: 8689751
Major fault: 0 Minor fault: 14374
Allocated PAGES: 14374

stream: 
stream:times selected: 2335940
stream:pref_filled: 114809
stream:pref_useful: 15313
stream:pref_late: 3822
stream:misses: 17599
stream:misses_by_poll: 0

CS: 
CS:times selected: 2005767
CS:pref_filled: 379230
CS:pref_useful: 362117
CS:pref_late: 50441
CS:misses: 64190
CS:misses_by_poll: 695

CPLX: 
CPLX:times selected: 326379
CPLX:pref_filled: 36423
CPLX:pref_useful: 1093
CPLX:pref_late: 182
CPLX:misses: 63066
CPLX:misses_by_poll: 37

NL_L1: 
NL:times selected: 1015
NL:pref_filled: 431
NL:pref_useful: 17
NL:pref_late: 17
NL:misses: 526
NL:misses_by_poll: 0

total selections: 4669101
total_filled: 446563
total_useful: 320095
total_late: 56371
total_polluted: 732
total_misses_after_warmup: 684704
conflicts: 2649442
Degree Incremented Times: 15296
Degree Decremented Times: 255960

L1 IP Table Write Accesses: 5185741
L1 IP Table Read Accesses: 2536299
L1 RST Write Accesses: 1940842
L1 RST Read Accesses: 3881684
L1 CSPT Write Accesses: 1940842
L1 CSPT Read Accesses: 2210755
L1 RR Filter Tag Write Accesses: 770251
L1 RR Filter Tag Read Accesses: 213817929
L1 IP Table Tag Write Accesses: 8009093
L1 IP Table Tag Read Accesses: 8009093
L1 RST Tag Write Accesses: 0
L1 RST Tag Read Accesses: 17681319
L1 RR Filter Write Accesses: 0
L1 RR Filter Read Accesses: 6967795
test: 170212
L2 IP Table Read Accesses: 1328105
L2 IP Table Write Accesses: 1472239
L2 IP Table Tag Read Accesses: 867421
L2 IP Table Tag Write Accesses: 867421

DRAM Statistics
 CHANNEL 0
 RQ ROW_BUFFER_HIT:     427726  ROW_BUFFER_MISS:     879798
 DBUS_CONGESTED:        539
 WQ ROW_BUFFER_HIT:     274490  ROW_BUFFER_MISS:     597051  FULL:          0

 AVG_CONGESTED_CYCLE: 3
 All warmup complete: 2
Channel 0 Bank busy for read cycles: 0
Channel 0 Bank busy for write cycles: 0
Channel 0
Rank 0
0banks busy for read cycles: 40252700
0banks busy for write cycles: 49545
1banks busy for read cycles: 14601702
1banks busy for write cycles: 6141010
2banks busy for read cycles: 10226053
2banks busy for write cycles: 3720854
3banks busy for read cycles: 6481463
3banks busy for write cycles: 2563306
4banks busy for read cycles: 6753889
4banks busy for write cycles: 1960633
5banks busy for read cycles: 2250686
5banks busy for write cycles: 1585638
6banks busy for read cycles: 1993808
6banks busy for write cycles: 1420628
7banks busy for read cycles: 1580519
7banks busy for write cycles: 2050338
8banks busy for read cycles: 5103931
8banks busy for write cycles: 11451370

CPU 0 Branch Prediction Accuracy: 96.2778% MPKI: 6.17182 Average ROB Occupancy at Mispredict: 51.7293
Branch types
NOT_BRANCH: 41709094 83.4182%
BRANCH_DIRECT_JUMP: 456401 0.912802%
BRANCH_INDIRECT: 50013 0.100026%
BRANCH_CONDITIONAL: 5963707 11.9274%
BRANCH_DIRECT_CALL: 742782 1.48556%
BRANCH_INDIRECT_CALL: 167454 0.334908%
BRANCH_RETURN: 910238 1.82048%
BRANCH_OTHER: 0 0%

@sumon_overall_L1D    320095     55753    126468    446563   1537313   1538898
@Sumon_Early_by_class_L1D      9294    308511       875        16
@Sumon_Late_by_class_L1D      3309     50435       118        16

@Sumon_Early_by_cycle_L1D    161772    142532     12064      1137       237       742       198       106       435       797        62        13
@Sumon_Late_by_cycle_L1D     36119     15532      3909       193         0         0         0         0         0         0         0         0
@Sumon_Early_stream_L1D      7182       397       146        27        84       524        94        30        26       715        57        12
@Sumon_Early_CS_L1D    153160    141886     11822      1024       110        26        20        22       393        47         1         0
@Sumon_Early_CPLX_L1D       254       103        65        80        41       171        72        40        16        28         4         1
@Sumon_Late_stream_L1D      1371      1932         6         0         0         0         0         0         0         0         0         0
@Sumon_Late_CS_L1D     33667     12673      3902       193         0         0         0         0         0         0         0         0
@Sumon_Late_CPLX_L1D        41        76         1         0         0         0         0         0         0         0         0         0
@sumon_overall_L2C     63289      3173    435794    498854    899963    899963
@Sumon_Early_by_class_L2C      1608      4056       761         0
@Sumon_Late_by_class_L2C         0       666         0         0

@Sumon_Early_by_cycle_L2C      8101      8578      6732      2152      1612     13352      2834       745      5901      2873      2684      7725
@Sumon_Late_by_cycle_L2C      1860      1307         6         0         0         0         0         0         0         0         0         0
@Sumon_Early_stream_L2C         6         4         5        11         0        31        19        15        31       353       398       735
@Sumon_Early_CS_L2C       621      1394       780       138         1        15        44        79       420       159        99       306
@Sumon_Early_CPLX_L2C         0         5         6        15         6        59        76       207        36        47        53       251
@Sumon_Late_stream_L2C         0         0         0         0         0         0         0         0         0         0         0         0
@Sumon_Late_CS_L2C       330       333         3         0         0         0         0         0         0         0         0         0
@Sumon_Late_CPLX_L2C         0         0         0         0         0         0         0         0         0         0         0         0
DRAM PAGES: 1048576
Allocated PAGES: 14374
