
*** ChampSim Multicore Out-of-Order Simulator ***

Warmup Instructions: 10000000
Simulation Instructions: 50000000
Number of CPUs: 1
LLC sets: 2048
LLC ways: 16
Off-chip DRAM Size: 4096 MB Channels: 1 Width: 64-bit Data Rate: 6400 MT/s
CPU 0 runs traces/clientserver/server_019.champsimtrace.xz
.xz
CPU 0 Bimodal branch predictor
BTB has LRU replacement policy
ITLB has LRU replacement policy
DTLB has LRU replacement policy
STLB has LRU replacement policy
L1I has LRU replacement policy
IP Table Entries: 256
Initialize DRRIP state for L1D
IP_Table L2 entries: 256
Initialize DRRIP state for L2C
LLC has LRU replacement policy
Heartbeat CPU 0 instructions: 10000002 cycles: 3156675 heartbeat IPC: 3.16789 cumulative IPC: 3.16789 (Simulation time: 0 hr 9 min 14 sec) 

Warmup complete CPU 0 instructions: 10000002 cycles: 3156675 (Simulation time: 0 hr 9 min 14 sec) 

Heartbeat CPU 0 instructions: 20000000 cycles: 26725059 heartbeat IPC: 0.424297 cumulative IPC: 0.424297 (Simulation time: 0 hr 21 min 40 sec) 
Heartbeat CPU 0 instructions: 30000003 cycles: 50174569 heartbeat IPC: 0.426448 cumulative IPC: 0.42537 (Simulation time: 0 hr 43 min 2 sec) 
Heartbeat CPU 0 instructions: 40000002 cycles: 73623929 heartbeat IPC: 0.426451 cumulative IPC: 0.42573 (Simulation time: 1 hr 7 min 22 sec) 
Heartbeat CPU 0 instructions: 50000001 cycles: 97104818 heartbeat IPC: 0.425878 cumulative IPC: 0.425767 (Simulation time: 1 hr 24 min 42 sec) 
Heartbeat CPU 0 instructions: 60000000 cycles: 123423656 heartbeat IPC: 0.379956 cumulative IPC: 0.415742 (Simulation time: 1 hr 40 min 11 sec) 
Finished CPU 0 instructions: 50000002 cycles: 120266982 cumulative IPC: 0.415742 (Simulation time: 1 hr 40 min 11 sec) 

ChampSim completed all CPUs

Region of Interest Statistics

CPU 0 cumulative IPC: 0.415742 instructions: 50000002 cycles: 120266982
ITLB TOTAL     ACCESS:    8973804  HIT:    8594318  MISS:     379486  HIT %:    95.7712  MISS %:    4.22882   MPKI: 7.58972
ITLB LOAD TRANSLATION ACCESS:    8973804  HIT:    8594318  MISS:     379486  HIT %:    95.7712  MISS %:    4.22882   MPKI: 7.58972
ITLB PREFETCH  REQUESTED:          0  ISSUED:          0  USEFUL:          0  USELESS:          0
ITLB USEFUL LOAD PREFETCHES:          0 PREFETCH ISSUED TO LOWER LEVEL:          0  ACCURACY: -nan
ITLB TIMELY PREFETCHES:          0 LATE PREFETCHES: 0 DROPPED PREFETCHES: 0
ITLB PREFETCHES SAME FILL-ORIGIN LEVEL: 0 DIFFERENT FILL-ORIGIN LEVEL: 0
ITLB AVERAGE MISS LATENCY: 9.36995 cycles
ITLB RQ	ACCESS:   10575470	FORWARD:          0	MERGED:    1478940	TO_CACHE:    9096530

DTLB TOTAL     ACCESS:   11686765  HIT:   11273572  MISS:     413193  HIT %:    96.4644  MISS %:    3.53556   MPKI: 8.26386
DTLB LOAD TRANSLATION ACCESS:   11686765  HIT:   11273572  MISS:     413193  HIT %:    96.4644  MISS %:    3.53556   MPKI: 8.26386
DTLB PREFETCH  REQUESTED:          0  ISSUED:          0  USEFUL:          0  USELESS:          0
DTLB USEFUL LOAD PREFETCHES:          0 PREFETCH ISSUED TO LOWER LEVEL:          0  ACCURACY: -nan
DTLB TIMELY PREFETCHES:          0 LATE PREFETCHES: 0 DROPPED PREFETCHES: 0
DTLB PREFETCHES SAME FILL-ORIGIN LEVEL: 0 DIFFERENT FILL-ORIGIN LEVEL: 0
DTLB AVERAGE MISS LATENCY: 20.3807 cycles
DTLB RQ	ACCESS:   16755657	FORWARD:          0	MERGED:    4991896	TO_CACHE:   11763761

STLB TOTAL     ACCESS:    1464543  HIT:    1438889  MISS:      25654  HIT %:    98.2483  MISS %:    1.75167   MPKI: 0.51308
STLB LOAD TRANSLATION ACCESS:     792679  HIT:     767025  MISS:      25654  HIT %:    96.7636  MISS %:    3.23637   MPKI: 0.51308
STLB TRANSLATION FROM L1D PREFETCHER ACCESS:     671864  HIT:     671864  MISS:          0  HIT %:        100  MISS %:          0   MPKI: 0
STLB PREFETCH  REQUESTED:          0  ISSUED:          0  USEFUL:          0  USELESS:          0
STLB USEFUL LOAD PREFETCHES:          0 PREFETCH ISSUED TO LOWER LEVEL:          0  ACCURACY: -nan
STLB TIMELY PREFETCHES:          0 LATE PREFETCHES: 0 DROPPED PREFETCHES: 0
STLB PREFETCHES SAME FILL-ORIGIN LEVEL: 0 DIFFERENT FILL-ORIGIN LEVEL: 0
STLB AVERAGE MISS LATENCY: 188.232 cycles
STLB RQ	ACCESS:    1561892	FORWARD:          0	MERGED:      97349	TO_CACHE:    1464543

STLB Hit, L1D data hit: 0
STLB Hit, L2C data hit: 0
STLB Hit, LLC data hit: 0
STLB Hit, LLC data miss: 0
STLB STLB hints to L2: 0
L1D TOTAL     ACCESS:   14866692  HIT:   12750799  MISS:    2115893  HIT %:    85.7676  MISS %:    14.2324   MPKI: 42.3179
L1D LOAD      ACCESS:    7950012  HIT:    7317308  MISS:     632704  HIT %:    92.0415  MISS %:    7.95853   MPKI: 12.6541
L1D RFO       ACCESS:    6223538  HIT:    5183331  MISS:    1040207  HIT %:    83.2859  MISS %:    16.7141   MPKI: 20.8041
L1D PREFETCH  ACCESS:     693142  HIT:     250160  MISS:     442982  HIT %:    36.0907  MISS %:    63.9093   MPKI: 8.85964
L1D PREFETCH  REQUESTED:    1540572  ISSUED:    1538456  USEFUL:     321884  USELESS:     121096
L1D USEFUL LOAD PREFETCHES:     321884 PREFETCH ISSUED TO LOWER LEVEL:     500019  ACCURACY: 64.3744
L1D TIMELY PREFETCHES:     321884 LATE PREFETCHES: 57030 DROPPED PREFETCHES: 0
L1D PREFETCHES SAME FILL-ORIGIN LEVEL: 500019 DIFFERENT FILL-ORIGIN LEVEL: 0
L1D AVERAGE MISS LATENCY: 1.66699e+06 cycles
L1D RQ	ACCESS:   11473332	FORWARD:          0	MERGED:    3362933	TO_CACHE:    7990480
L1D WQ	ACCESS:    8825080	FORWARD:     119949	MERGED:      59903	TO_CACHE:    8765177
L1D PQ	ACCESS:     769243	FORWARD:          0	MERGED:          0	TO_CACHE:     769213

L1D UNIQUE REGIONS ACCESSED: 0
L1D REGIONS CONFLICTS: 0
L1D Cross Page Prefetch Requests: 0
L1D Same Page Prefetch Requests: 924827
L1D ROI Sum of L1D PQ occupancy: 13059586
L1D PREFETCHES PUSHED FROM L2C: 0
L1I TOTAL     ACCESS:    9845890  HIT:    7424919  MISS:    2420971  HIT %:    75.4114  MISS %:    24.5886   MPKI: 48.4194
L1I LOAD      ACCESS:    9845890  HIT:    7424919  MISS:    2420971  HIT %:    75.4114  MISS %:    24.5886   MPKI: 48.4194
L1I PREFETCH  REQUESTED:          0  ISSUED:          0  USEFUL:          0  USELESS:          0
L1I USEFUL LOAD PREFETCHES:          0 PREFETCH ISSUED TO LOWER LEVEL:          0  ACCURACY: -nan
L1I TIMELY PREFETCHES:          0 LATE PREFETCHES: 0 DROPPED PREFETCHES: 0
L1I PREFETCHES SAME FILL-ORIGIN LEVEL: 0 DIFFERENT FILL-ORIGIN LEVEL: 0
L1I AVERAGE MISS LATENCY: 16.9441 cycles
L1I RQ	ACCESS:   14548185	FORWARD:          0	MERGED:    3972715	TO_CACHE:   10575470

BTB TOTAL     ACCESS:    5371901  HIT:    5113484  MISS:     258417  HIT %:    95.1895  MISS %:    4.81053   MPKI: 5.16834
BTB BRANCH_DIRECT_JUMP	ACCESS:     443646  HIT:     441750  MISS:       1896
BTB BRANCH_INDIRECT	ACCESS:      50440  HIT:      50330  MISS:        110
BTB BRANCH_CONDITIONAL	ACCESS:    3053730  HIT:    3047747  MISS:       5983
BTB BRANCH_DIRECT_CALL	ACCESS:     751314  HIT:     747394  MISS:       3920
BTB BRANCH_INDIRECT_CALL	ACCESS:     160721  HIT:     131521  MISS:      29200
BTB BRANCH_RETURN	ACCESS:     912050  HIT:     694742  MISS:     217308
BTB BRANCH_OTHER ACCESS:          0  HIT:          0  MISS:          0

L2C TOTAL     ACCESS:    6360082  HIT:    4488515  MISS:    1871567  HIT %:    70.5732  MISS %:    29.4268   MPKI: 37.4313
L2C LOAD      ACCESS:    2996614  HIT:    2613048  MISS:     383566  HIT %:       87.2  MISS %:       12.8   MPKI: 7.67132
L2C DATA LOAD MPKI: 5.29294
L2C INSTRUCTION LOAD MPKI: 2.37838
L2C RFO       ACCESS:    1039996  HIT:      65673  MISS:     974323  HIT %:    6.31474  MISS %:    93.6853   MPKI: 19.4865
L2C PREFETCH  ACCESS:    1084905  HIT:     597488  MISS:     487417  HIT %:    55.0728  MISS %:    44.9272   MPKI: 9.74834
L2C DATA PREFETCH MPKI: 9.74834
L2C INSTRUCTION PREFETCH MPKI: 0
L2C WRITEBACK ACCESS:    1207392  HIT:    1196899  MISS:      10493  HIT %:    99.1309  MISS %:   0.869063   MPKI: 0.20986
L2C LOAD TRANSLATION ACCESS:      31175  HIT:      15407  MISS:      15768  HIT %:     49.421  MISS %:     50.579   MPKI: 0.31536
L2C PREFETCH  REQUESTED:     891238  ISSUED:     891238  USEFUL:      61763  USELESS:     426367
L2C USEFUL LOAD PREFETCHES:      61763 PREFETCH ISSUED TO LOWER LEVEL:     490594  ACCURACY: 12.5894
L2C TIMELY PREFETCHES:      61763 LATE PREFETCHES: 3177 DROPPED PREFETCHES: 0
L2C PREFETCHES SAME FILL-ORIGIN LEVEL: 374581 DIFFERENT FILL-ORIGIN LEVEL: 0
L2C AVERAGE MISS LATENCY: 209.012 cycles
L2C RQ	ACCESS:    4068021	FORWARD:          0	MERGED:          0	TO_CACHE:    4067785
L2C WQ	ACCESS:    1207392	FORWARD:        240	MERGED:          0	TO_CACHE:    1207392
L2C PQ	ACCESS:    1391257	FORWARD:          0	MERGED:      81316	TO_CACHE:    1309937

L2C Instructions Evicting Data 104785
L2C Translations Evicting Data 14814
L2C Data Evicting Data 1608081
L2C Instructions Evicting Instructions 13256
L2C Translations Evicting Instructions 834
L2C Data Evicting Instructions 103725
L2C Instructions Evicting Translations 878
L2C Translations Evicting Translations 120
L2C Data Evicting Translations 14581
L2C Dense regions hint from L2: 0
PSCL5 TOTAL     ACCESS:      25654  HIT:      25654  MISS:          0  HIT %:        100  MISS %:          0   MPKI: 0
PSCL5 LOAD TRANSLATION ACCESS:      25654  HIT:      25654  MISS:          0  HIT %:        100  MISS %:          0   MPKI: 0
PSCL5 PREFETCH  REQUESTED:          0  ISSUED:          0  USEFUL:          0  USELESS:          0
PSCL5 USEFUL LOAD PREFETCHES:          0 PREFETCH ISSUED TO LOWER LEVEL:          0  ACCURACY: -nan
PSCL5 TIMELY PREFETCHES:          0 LATE PREFETCHES: 0 DROPPED PREFETCHES: 0
PSCL5 PREFETCHES SAME FILL-ORIGIN LEVEL: 0 DIFFERENT FILL-ORIGIN LEVEL: 0

PSCL4 TOTAL     ACCESS:      25361  HIT:      25293  MISS:         68  HIT %:    99.7319  MISS %:   0.268128   MPKI: 0.00136
PSCL4 LOAD TRANSLATION ACCESS:      25361  HIT:      25293  MISS:         68  HIT %:    99.7319  MISS %:   0.268128   MPKI: 0.00136
PSCL4 PREFETCH  REQUESTED:          0  ISSUED:          0  USEFUL:          0  USELESS:          0
PSCL4 USEFUL LOAD PREFETCHES:          0 PREFETCH ISSUED TO LOWER LEVEL:          0  ACCURACY: -nan
PSCL4 TIMELY PREFETCHES:          0 LATE PREFETCHES: 0 DROPPED PREFETCHES: 0
PSCL4 PREFETCHES SAME FILL-ORIGIN LEVEL: 0 DIFFERENT FILL-ORIGIN LEVEL: 0

PSCL3 TOTAL     ACCESS:      24393  HIT:      24003  MISS:        390  HIT %:    98.4012  MISS %:    1.59882   MPKI: 0.0078
PSCL3 LOAD TRANSLATION ACCESS:      24393  HIT:      24003  MISS:        390  HIT %:    98.4012  MISS %:    1.59882   MPKI: 0.0078
PSCL3 PREFETCH  REQUESTED:          0  ISSUED:          0  USEFUL:          0  USELESS:          0
PSCL3 USEFUL LOAD PREFETCHES:          0 PREFETCH ISSUED TO LOWER LEVEL:          0  ACCURACY: -nan
PSCL3 TIMELY PREFETCHES:          0 LATE PREFETCHES: 0 DROPPED PREFETCHES: 0
PSCL3 PREFETCHES SAME FILL-ORIGIN LEVEL: 0 DIFFERENT FILL-ORIGIN LEVEL: 0

PSCL2 TOTAL     ACCESS:      25654  HIT:      20562  MISS:       5092  HIT %:    80.1512  MISS %:    19.8488   MPKI: 0.10184
PSCL2 LOAD TRANSLATION ACCESS:      25654  HIT:      20562  MISS:       5092  HIT %:    80.1512  MISS %:    19.8488   MPKI: 0.10184
PSCL2 PREFETCH  REQUESTED:          0  ISSUED:          0  USEFUL:          0  USELESS:          0
PSCL2 USEFUL LOAD PREFETCHES:          0 PREFETCH ISSUED TO LOWER LEVEL:          0  ACCURACY: -nan
PSCL2 TIMELY PREFETCHES:          0 LATE PREFETCHES: 0 DROPPED PREFETCHES: 0
PSCL2 PREFETCHES SAME FILL-ORIGIN LEVEL: 0 DIFFERENT FILL-ORIGIN LEVEL: 0

LLC TOTAL     ACCESS:    2988021  HIT:    1633287  MISS:    1354734  HIT %:    54.6612  MISS %:    45.3388   MPKI: 27.0947
LLC LOAD      ACCESS:     381036  HIT:     268704  MISS:     112332  HIT %:    70.5193  MISS %:    29.4807   MPKI: 2.24664
LLC RFO       ACCESS:     973676  HIT:     112152  MISS:     861524  HIT %:    11.5184  MISS %:    88.4816   MPKI: 17.2305
LLC PREFETCH  ACCESS:     490592  HIT:     122502  MISS:     368090  HIT %:    24.9702  MISS %:    75.0298   MPKI: 7.3618
LLC WRITEBACK ACCESS:    1126949  HIT:    1124625  MISS:       2324  HIT %:    99.7938  MISS %:   0.206221   MPKI: 0.04648
LLC LOAD TRANSLATION ACCESS:      15768  HIT:       5304  MISS:      10464  HIT %:    33.6377  MISS %:    66.3623   MPKI: 0.20928
LLC PREFETCH  REQUESTED:          0  ISSUED:          0  USEFUL:       8845  USELESS:     359238
LLC USEFUL LOAD PREFETCHES:       8845 PREFETCH ISSUED TO LOWER LEVEL:     368090  ACCURACY: 2.40294
LLC TIMELY PREFETCHES:       8845 LATE PREFETCHES: 0 DROPPED PREFETCHES: 0
LLC PREFETCHES SAME FILL-ORIGIN LEVEL: 0 DIFFERENT FILL-ORIGIN LEVEL: 0
LLC AVERAGE MISS LATENCY: 245.78 cycles
LLC RQ	ACCESS:    1370480	FORWARD:          0	MERGED:          0	TO_CACHE:    1370480
LLC WQ	ACCESS:    1126949	FORWARD:          2	MERGED:          0	TO_CACHE:    1126949
LLC PQ	ACCESS:     490594	FORWARD:          0	MERGED:          0	TO_CACHE:     490592

LLC Dense regions hint to LLC: 0

RAW hits: 889760
Loads Generated: 12363092
Loads sent to L1D: 11473332
Stores Generated: 8825077
Stores sent to L1D: 8825080
Major fault: 0 Minor fault: 17712
Allocated PAGES: 17712

stream: 
stream:times selected: 2321942
stream:pref_filled: 98869
stream:pref_useful: 11776
stream:pref_late: 3781
stream:misses: 15607
stream:misses_by_poll: 0

CS: 
CS:times selected: 2033823
CS:pref_filled: 385379
CS:pref_useful: 368012
CS:pref_late: 51677
CS:misses: 65385
CS:misses_by_poll: 787

CPLX: 
CPLX:times selected: 284348
CPLX:pref_filled: 39507
CPLX:pref_useful: 1305
CPLX:pref_late: 223
CPLX:misses: 56086
CPLX:misses_by_poll: 40

NL_L1: 
NL:times selected: 908
NL:pref_filled: 331
NL:pref_useful: 15
NL:pref_late: 13
NL:misses: 413
NL:misses_by_poll: 0

total selections: 4641021
total_filled: 442982
total_useful: 321884
total_late: 57628
total_polluted: 827
total_misses_after_warmup: 673172
conflicts: 2667553
Degree Incremented Times: 67258
Degree Decremented Times: 194841

L1 IP Table Write Accesses: 5154673
L1 IP Table Read Accesses: 2487120
L1 RST Write Accesses: 1929789
L1 RST Read Accesses: 3859578
L1 CSPT Write Accesses: 1929789
L1 CSPT Read Accesses: 2165624
L1 RR Filter Tag Write Accesses: 771359
L1 RR Filter Tag Read Accesses: 215796358
L1 IP Table Tag Write Accesses: 7990480
L1 IP Table Tag Read Accesses: 7990480
L1 RST Tag Write Accesses: 0
L1 RST Tag Read Accesses: 17612806
L1 RR Filter Write Accesses: 0
L1 RR Filter Read Accesses: 7024299
test: 145105
L2 IP Table Read Accesses: 1298568
L2 IP Table Write Accesses: 1443367
L2 IP Table Tag Read Accesses: 849432
L2 IP Table Tag Write Accesses: 849432

DRAM Statistics
 CHANNEL 0
 RQ ROW_BUFFER_HIT:     463401  ROW_BUFFER_MISS:     888910
 DBUS_CONGESTED:        542
 WQ ROW_BUFFER_HIT:     306685  ROW_BUFFER_MISS:     624582  FULL:          0

 AVG_CONGESTED_CYCLE: 3
 All warmup complete: 2
Channel 0 Bank busy for read cycles: 0
Channel 0 Bank busy for write cycles: 0
Channel 0
Rank 0
0banks busy for read cycles: 41266412
0banks busy for write cycles: 47432
1banks busy for read cycles: 14087049
1banks busy for write cycles: 5984695
2banks busy for read cycles: 9116104
2banks busy for write cycles: 3386475
3banks busy for read cycles: 6057168
3banks busy for write cycles: 2217714
4banks busy for read cycles: 6757524
4banks busy for write cycles: 1757770
5banks busy for read cycles: 2258661
5banks busy for write cycles: 1481318
6banks busy for read cycles: 2034448
6banks busy for write cycles: 1351275
7banks busy for read cycles: 1725261
7banks busy for write cycles: 2118003
8banks busy for read cycles: 5864227
8banks busy for write cycles: 12755447

CPU 0 Branch Prediction Accuracy: 96.5839% MPKI: 5.63912 Average ROB Occupancy at Mispredict: 49.5057
Branch types
NOT_BRANCH: 41745935 83.4919%
BRANCH_DIRECT_JUMP: 443646 0.887292%
BRANCH_INDIRECT: 50440 0.10088%
BRANCH_CONDITIONAL: 5935547 11.8711%
BRANCH_DIRECT_CALL: 751314 1.50263%
BRANCH_INDIRECT_CALL: 160721 0.321442%
BRANCH_RETURN: 912050 1.8241%
BRANCH_OTHER: 0 0%

@sumon_overall_L1D    321884     57030    121096    442982   1538456   1540572
@Sumon_Early_by_class_L1D      8967    310613       982        13
@Sumon_Late_by_class_L1D      3267     51671       171        13

@Sumon_Early_by_cycle_L1D    161994    143464     12423      1530       351       328       203       156       494       858        71        12
@Sumon_Late_by_cycle_L1D     36714     16128      3973       215         0         0         0         0         0         0         0         0
@Sumon_Early_stream_L1D      6805       398       217       319       123       125        76        27        29       772        65        11
@Sumon_Early_CS_L1D    153842    142866     12129      1061       133        23        24        43       438        49         5         0
@Sumon_Early_CPLX_L1D       232        80        52       143        95       169        89        64        22        35         1         0
@Sumon_Late_stream_L1D      1371      1888         7         1         0         0         0         0         0         0         0         0
@Sumon_Late_CS_L1D     34244     13248      3965       214         0         0         0         0         0         0         0         0
@Sumon_Late_CPLX_L1D        59       111         1         0         0         0         0         0         0         0         0         0
@sumon_overall_L2C     61763      3177    426367    487417    891238    891238
@Sumon_Early_by_class_L2C      1345      3866       791         0
@Sumon_Late_by_class_L2C         0       652         0         0

@Sumon_Early_by_cycle_L2C      8132      8620      6690      2115      1833     13252      2711       661      6148      1890      1722      7989
@Sumon_Late_by_cycle_L2C      1873      1288        16         0         0         0         0         0         0         0         0         0
@Sumon_Early_stream_L2C         8         2         5         2         0        21         5         8        31       299       335       629
@Sumon_Early_CS_L2C       546      1331       740       158         4        18        21        30       453       144       120       301
@Sumon_Early_CPLX_L2C         4        11         7        22        16        64        74       185        26        42        59       281
@Sumon_Late_stream_L2C         0         0         0         0         0         0         0         0         0         0         0         0
@Sumon_Late_CS_L2C       301       337        14         0         0         0         0         0         0         0         0         0
@Sumon_Late_CPLX_L2C         0         0         0         0         0         0         0         0         0         0         0         0
DRAM PAGES: 1048576
Allocated PAGES: 17712
