
*** ChampSim Multicore Out-of-Order Simulator ***

Warmup Instructions: 10000000
Simulation Instructions: 50000000
Number of CPUs: 1
LLC sets: 2048
LLC ways: 16
Off-chip DRAM Size: 4096 MB Channels: 1 Width: 64-bit Data Rate: 6400 MT/s
CPU 0 runs traces/clientserver/server_012.champsimtrace.xz
.xz
CPU 0 Bimodal branch predictor
BTB has LRU replacement policy
ITLB has LRU replacement policy
DTLB has LRU replacement policy
STLB has LRU replacement policy
L1I has LRU replacement policy
IP Table Entries: 256
Initialize DRRIP state for L1D
IP_Table L2 entries: 256
Initialize DRRIP state for L2C
LLC has LRU replacement policy
Heartbeat CPU 0 instructions: 10000002 cycles: 2769205 heartbeat IPC: 3.61115 cumulative IPC: 3.61115 (Simulation time: 0 hr 7 min 38 sec) 

Warmup complete CPU 0 instructions: 10000002 cycles: 2769205 (Simulation time: 0 hr 7 min 38 sec) 

Heartbeat CPU 0 instructions: 20000002 cycles: 23267569 heartbeat IPC: 0.487844 cumulative IPC: 0.487844 (Simulation time: 0 hr 15 min 48 sec) 
Heartbeat CPU 0 instructions: 30000001 cycles: 43379836 heartbeat IPC: 0.497209 cumulative IPC: 0.492482 (Simulation time: 0 hr 23 min 59 sec) 
Heartbeat CPU 0 instructions: 40000001 cycles: 63929545 heartbeat IPC: 0.486625 cumulative IPC: 0.490514 (Simulation time: 0 hr 38 min 59 sec) 
Heartbeat CPU 0 instructions: 50000000 cycles: 84165770 heartbeat IPC: 0.494163 cumulative IPC: 0.491421 (Simulation time: 0 hr 55 min 0 sec) 
Heartbeat CPU 0 instructions: 60000000 cycles: 103786155 heartbeat IPC: 0.509674 cumulative IPC: 0.494966 (Simulation time: 1 hr 10 min 48 sec) 
Finished CPU 0 instructions: 50000002 cycles: 101016951 cumulative IPC: 0.494966 (Simulation time: 1 hr 10 min 48 sec) 

ChampSim completed all CPUs

Region of Interest Statistics

CPU 0 cumulative IPC: 0.494966 instructions: 50000002 cycles: 101016951
ITLB TOTAL     ACCESS:    7883210  HIT:    7685400  MISS:     197810  HIT %:    97.4907  MISS %:    2.50926   MPKI: 3.9562
ITLB LOAD TRANSLATION ACCESS:    7883210  HIT:    7685400  MISS:     197810  HIT %:    97.4907  MISS %:    2.50926   MPKI: 3.9562
ITLB PREFETCH  REQUESTED:          0  ISSUED:          0  USEFUL:          0  USELESS:          0
ITLB USEFUL LOAD PREFETCHES:          0 PREFETCH ISSUED TO LOWER LEVEL:          0  ACCURACY: -nan
ITLB TIMELY PREFETCHES:          0 LATE PREFETCHES: 0 DROPPED PREFETCHES: 0
ITLB PREFETCHES SAME FILL-ORIGIN LEVEL: 0 DIFFERENT FILL-ORIGIN LEVEL: 0
ITLB AVERAGE MISS LATENCY: 16.4355 cycles
ITLB RQ	ACCESS:    9690700	FORWARD:          0	MERGED:    1756400	TO_CACHE:    7934300

DTLB TOTAL     ACCESS:   10018681  HIT:    9375414  MISS:     643267  HIT %:    93.5793  MISS %:    6.42068   MPKI: 12.8653
DTLB LOAD TRANSLATION ACCESS:   10018681  HIT:    9375414  MISS:     643267  HIT %:    93.5793  MISS %:    6.42068   MPKI: 12.8653
DTLB PREFETCH  REQUESTED:          0  ISSUED:          0  USEFUL:          0  USELESS:          0
DTLB USEFUL LOAD PREFETCHES:          0 PREFETCH ISSUED TO LOWER LEVEL:          0  ACCURACY: -nan
DTLB TIMELY PREFETCHES:          0 LATE PREFETCHES: 0 DROPPED PREFETCHES: 0
DTLB PREFETCHES SAME FILL-ORIGIN LEVEL: 0 DIFFERENT FILL-ORIGIN LEVEL: 0
DTLB AVERAGE MISS LATENCY: 14.5076 cycles
DTLB RQ	ACCESS:   12378747	FORWARD:          0	MERGED:    2323390	TO_CACHE:   10055357

STLB TOTAL     ACCESS:    1029891  HIT:     913664  MISS:     116227  HIT %:    88.7146  MISS %:    11.2854   MPKI: 2.32454
STLB LOAD TRANSLATION ACCESS:     841077  HIT:     724850  MISS:     116227  HIT %:    86.1812  MISS %:    13.8188   MPKI: 2.32454
STLB TRANSLATION FROM L1D PREFETCHER ACCESS:     188814  HIT:     188814  MISS:          0  HIT %:        100  MISS %:          0   MPKI: 0
STLB PREFETCH  REQUESTED:          0  ISSUED:          0  USEFUL:          0  USELESS:          0
STLB USEFUL LOAD PREFETCHES:          0 PREFETCH ISSUED TO LOWER LEVEL:          0  ACCURACY: -nan
STLB TIMELY PREFETCHES:          0 LATE PREFETCHES: 0 DROPPED PREFETCHES: 0
STLB PREFETCHES SAME FILL-ORIGIN LEVEL: 0 DIFFERENT FILL-ORIGIN LEVEL: 0
STLB AVERAGE MISS LATENCY: 43.0009 cycles
STLB RQ	ACCESS:    1079858	FORWARD:          0	MERGED:      49966	TO_CACHE:    1029892

STLB Hit, L1D data hit: 0
STLB Hit, L2C data hit: 0
STLB Hit, LLC data hit: 0
STLB Hit, LLC data miss: 0
STLB STLB hints to L2: 0
L1D TOTAL     ACCESS:   12461012  HIT:   11666326  MISS:     794686  HIT %:    93.6226  MISS %:    6.37738   MPKI: 15.8937
L1D LOAD      ACCESS:    7231161  HIT:    6646893  MISS:     584268  HIT %:    91.9201  MISS %:    8.07986   MPKI: 11.6854
L1D RFO       ACCESS:    5005895  HIT:    4902282  MISS:     103613  HIT %:    97.9302  MISS %:    2.06982   MPKI: 2.07226
L1D PREFETCH  ACCESS:     223956  HIT:     117151  MISS:     106805  HIT %:    52.3098  MISS %:    47.6902   MPKI: 2.1361
L1D PREFETCH  REQUESTED:     477826  ISSUED:     477693  USEFUL:      25367  USELESS:      81435
L1D USEFUL LOAD PREFETCHES:      25367 PREFETCH ISSUED TO LOWER LEVEL:     112981  ACCURACY: 22.4524
L1D TIMELY PREFETCHES:      25367 LATE PREFETCHES: 6064 DROPPED PREFETCHES: 0
L1D PREFETCHES SAME FILL-ORIGIN LEVEL: 112981 DIFFERENT FILL-ORIGIN LEVEL: 0
L1D AVERAGE MISS LATENCY: 423331 cycles
L1D RQ	ACCESS:   10640508	FORWARD:          0	MERGED:    3305987	TO_CACHE:    7255969
L1D WQ	ACCESS:    5207903	FORWARD:      78685	MERGED:      85125	TO_CACHE:    5122778
L1D PQ	ACCESS:     238913	FORWARD:          0	MERGED:          0	TO_CACHE:     238780

L1D UNIQUE REGIONS ACCESSED: 0
L1D REGIONS CONFLICTS: 0
L1D Cross Page Prefetch Requests: 0
L1D Same Page Prefetch Requests: 287298
L1D ROI Sum of L1D PQ occupancy: 3188202
L1D PREFETCHES PUSHED FROM L2C: 0
L1I TOTAL     ACCESS:    9266877  HIT:    7968498  MISS:    1298379  HIT %:     85.989  MISS %:     14.011   MPKI: 25.9676
L1I LOAD      ACCESS:    9266877  HIT:    7968498  MISS:    1298379  HIT %:     85.989  MISS %:     14.011   MPKI: 25.9676
L1I PREFETCH  REQUESTED:          0  ISSUED:          0  USEFUL:          0  USELESS:          0
L1I USEFUL LOAD PREFETCHES:          0 PREFETCH ISSUED TO LOWER LEVEL:          0  ACCURACY: -nan
L1I TIMELY PREFETCHES:          0 LATE PREFETCHES: 0 DROPPED PREFETCHES: 0
L1I PREFETCHES SAME FILL-ORIGIN LEVEL: 0 DIFFERENT FILL-ORIGIN LEVEL: 0
L1I AVERAGE MISS LATENCY: 28.7782 cycles
L1I RQ	ACCESS:   13859276	FORWARD:          0	MERGED:    4168576	TO_CACHE:    9690700

BTB TOTAL     ACCESS:    4469989  HIT:    3684876  MISS:     785113  HIT %:    82.4359  MISS %:    17.5641   MPKI: 15.7023
BTB BRANCH_DIRECT_JUMP	ACCESS:     461138  HIT:     398477  MISS:      62661
BTB BRANCH_INDIRECT	ACCESS:     153420  HIT:     119718  MISS:      33702
BTB BRANCH_CONDITIONAL	ACCESS:    2143625  HIT:    1887592  MISS:     256033
BTB BRANCH_DIRECT_CALL	ACCESS:     670235  HIT:     552214  MISS:     118021
BTB BRANCH_INDIRECT_CALL	ACCESS:     168700  HIT:     156363  MISS:      12337
BTB BRANCH_RETURN	ACCESS:     872871  HIT:     570512  MISS:     302359
BTB BRANCH_OTHER ACCESS:          0  HIT:          0  MISS:          0

L2C TOTAL     ACCESS:    2960411  HIT:    1761783  MISS:    1198628  HIT %:    59.5114  MISS %:    40.4886   MPKI: 23.9726
L2C LOAD      ACCESS:    1876539  HIT:    1063473  MISS:     813066  HIT %:     56.672  MISS %:     43.328   MPKI: 16.2613
L2C DATA LOAD MPKI: 4.39676
L2C INSTRUCTION LOAD MPKI: 11.8646
L2C RFO       ACCESS:     103451  HIT:      52549  MISS:      50902  HIT %:     50.796  MISS %:     49.204   MPKI: 1.01804
L2C PREFETCH  ACCESS:     572744  HIT:     318896  MISS:     253848  HIT %:    55.6786  MISS %:    44.3214   MPKI: 5.07696
L2C DATA PREFETCH MPKI: 5.07696
L2C INSTRUCTION PREFETCH MPKI: 0
L2C WRITEBACK ACCESS:     260368  HIT:     235340  MISS:      25028  HIT %:    90.3875  MISS %:    9.61255   MPKI: 0.50056
L2C LOAD TRANSLATION ACCESS:     147309  HIT:      91525  MISS:      55784  HIT %:    62.1313  MISS %:    37.8687   MPKI: 1.11568
L2C PREFETCH  REQUESTED:     485663  ISSUED:     485663  USEFUL:      59605  USELESS:     194490
L2C USEFUL LOAD PREFETCHES:      59605 PREFETCH ISSUED TO LOWER LEVEL:     259663  ACCURACY: 22.9548
L2C TIMELY PREFETCHES:      59605 LATE PREFETCHES: 5815 DROPPED PREFETCHES: 0
L2C PREFETCHES SAME FILL-ORIGIN LEVEL: 191100 DIFFERENT FILL-ORIGIN LEVEL: 0
L2C AVERAGE MISS LATENCY: 40.0131 cycles
L2C RQ	ACCESS:    2127390	FORWARD:          0	MERGED:          0	TO_CACHE:    2127297
L2C WQ	ACCESS:     260368	FORWARD:         97	MERGED:          0	TO_CACHE:     260368
L2C PQ	ACCESS:     598644	FORWARD:          0	MERGED:       5393	TO_CACHE:     593247

L2C Instructions Evicting Data 271685
L2C Translations Evicting Data 25418
L2C Data Evicting Data 240182
L2C Instructions Evicting Instructions 293695
L2C Translations Evicting Instructions 27973
L2C Data Evicting Instructions 260077
L2C Instructions Evicting Translations 27848
L2C Translations Evicting Translations 2393
L2C Data Evicting Translations 24329
L2C Dense regions hint from L2: 0
PSCL5 TOTAL     ACCESS:     116227  HIT:     116227  MISS:          0  HIT %:        100  MISS %:          0   MPKI: 0
PSCL5 LOAD TRANSLATION ACCESS:     116227  HIT:     116227  MISS:          0  HIT %:        100  MISS %:          0   MPKI: 0
PSCL5 PREFETCH  REQUESTED:          0  ISSUED:          0  USEFUL:          0  USELESS:          0
PSCL5 USEFUL LOAD PREFETCHES:          0 PREFETCH ISSUED TO LOWER LEVEL:          0  ACCURACY: -nan
PSCL5 TIMELY PREFETCHES:          0 LATE PREFETCHES: 0 DROPPED PREFETCHES: 0
PSCL5 PREFETCHES SAME FILL-ORIGIN LEVEL: 0 DIFFERENT FILL-ORIGIN LEVEL: 0

PSCL4 TOTAL     ACCESS:     111999  HIT:     111661  MISS:        338  HIT %:    99.6982  MISS %:   0.301788   MPKI: 0.00676
PSCL4 LOAD TRANSLATION ACCESS:     111999  HIT:     111661  MISS:        338  HIT %:    99.6982  MISS %:   0.301788   MPKI: 0.00676
PSCL4 PREFETCH  REQUESTED:          0  ISSUED:          0  USEFUL:          0  USELESS:          0
PSCL4 USEFUL LOAD PREFETCHES:          0 PREFETCH ISSUED TO LOWER LEVEL:          0  ACCURACY: -nan
PSCL4 TIMELY PREFETCHES:          0 LATE PREFETCHES: 0 DROPPED PREFETCHES: 0
PSCL4 PREFETCHES SAME FILL-ORIGIN LEVEL: 0 DIFFERENT FILL-ORIGIN LEVEL: 0

PSCL3 TOTAL     ACCESS:     115184  HIT:     114215  MISS:        969  HIT %:    99.1587  MISS %:   0.841263   MPKI: 0.01938
PSCL3 LOAD TRANSLATION ACCESS:     115184  HIT:     114215  MISS:        969  HIT %:    99.1587  MISS %:   0.841263   MPKI: 0.01938
PSCL3 PREFETCH  REQUESTED:          0  ISSUED:          0  USEFUL:          0  USELESS:          0
PSCL3 USEFUL LOAD PREFETCHES:          0 PREFETCH ISSUED TO LOWER LEVEL:          0  ACCURACY: -nan
PSCL3 TIMELY PREFETCHES:          0 LATE PREFETCHES: 0 DROPPED PREFETCHES: 0
PSCL3 PREFETCHES SAME FILL-ORIGIN LEVEL: 0 DIFFERENT FILL-ORIGIN LEVEL: 0

PSCL2 TOTAL     ACCESS:     116227  HIT:      86376  MISS:      29851  HIT %:    74.3166  MISS %:    25.6834   MPKI: 0.59702
PSCL2 LOAD TRANSLATION ACCESS:     116227  HIT:      86376  MISS:      29851  HIT %:    74.3166  MISS %:    25.6834   MPKI: 0.59702
PSCL2 PREFETCH  REQUESTED:          0  ISSUED:          0  USEFUL:          0  USELESS:          0
PSCL2 USEFUL LOAD PREFETCHES:          0 PREFETCH ISSUED TO LOWER LEVEL:          0  ACCURACY: -nan
PSCL2 TIMELY PREFETCHES:          0 LATE PREFETCHES: 0 DROPPED PREFETCHES: 0
PSCL2 PREFETCHES SAME FILL-ORIGIN LEVEL: 0 DIFFERENT FILL-ORIGIN LEVEL: 0

LLC TOTAL     ACCESS:    1329848  HIT:    1245112  MISS:      84736  HIT %:    93.6281  MISS %:    6.37186   MPKI: 1.69472
LLC LOAD      ACCESS:     807460  HIT:     782351  MISS:      25109  HIT %:    96.8904  MISS %:    3.10963   MPKI: 0.50218
LLC RFO       ACCESS:      50682  HIT:      41471  MISS:       9211  HIT %:    81.8259  MISS %:    18.1741   MPKI: 0.18422
LLC PREFETCH  ACCESS:     259662  HIT:     210949  MISS:      48713  HIT %:    81.2398  MISS %:    18.7602   MPKI: 0.97426
LLC WRITEBACK ACCESS:     156260  HIT:     156126  MISS:        134  HIT %:    99.9142  MISS %:  0.0857545   MPKI: 0.00268
LLC LOAD TRANSLATION ACCESS:      55784  HIT:      54215  MISS:       1569  HIT %:    97.1874  MISS %:    2.81263   MPKI: 0.03138
LLC PREFETCH  REQUESTED:          0  ISSUED:          0  USEFUL:       3642  USELESS:      43548
LLC USEFUL LOAD PREFETCHES:       3642 PREFETCH ISSUED TO LOWER LEVEL:      48713  ACCURACY: 7.47644
LLC TIMELY PREFETCHES:       3642 LATE PREFETCHES: 0 DROPPED PREFETCHES: 0
LLC PREFETCHES SAME FILL-ORIGIN LEVEL: 0 DIFFERENT FILL-ORIGIN LEVEL: 0
LLC AVERAGE MISS LATENCY: 153.846 cycles
LLC RQ	ACCESS:     913936	FORWARD:          0	MERGED:          0	TO_CACHE:     913925
LLC WQ	ACCESS:     156260	FORWARD:         12	MERGED:          0	TO_CACHE:     156260
LLC PQ	ACCESS:     259663	FORWARD:          0	MERGED:          0	TO_CACHE:     259662

LLC Dense regions hint to LLC: 0

RAW hits: 790982
Loads Generated: 11431487
Loads sent to L1D: 10640508
Stores Generated: 5207898
Stores sent to L1D: 5207903
Major fault: 0 Minor fault: 4938
Allocated PAGES: 4938

stream: 
stream:times selected: 430849
stream:pref_filled: 78184
stream:pref_useful: 17371
stream:pref_late: 3281
stream:misses: 6981
stream:misses_by_poll: 0

CS: 
CS:times selected: 26699
CS:pref_filled: 13817
CS:pref_useful: 9274
CS:pref_late: 2490
CS:misses: 4773
CS:misses_by_poll: 0

CPLX: 
CPLX:times selected: 400979
CPLX:pref_filled: 31031
CPLX:pref_useful: 3228
CPLX:pref_late: 478
CPLX:misses: 35474
CPLX:misses_by_poll: 4

NL_L1: 
NL:times selected: 2965
NL:pref_filled: 1213
NL:pref_useful: 134
NL:pref_late: 20
NL:misses: 399
NL:misses_by_poll: 0

total selections: 861492
total_filled: 106805
total_useful: 25367
total_late: 6647
total_polluted: 4
total_misses_after_warmup: 609075
conflicts: 2436971
Degree Incremented Times: 2
Degree Decremented Times: 165244

L1 IP Table Write Accesses: 4294813
L1 IP Table Read Accesses: 1857842
L1 RST Write Accesses: 362568
L1 RST Read Accesses: 725136
L1 CSPT Write Accesses: 362568
L1 CSPT Read Accesses: 701502
L1 RR Filter Tag Write Accesses: 239046
L1 RR Filter Tag Read Accesses: 14807591
L1 IP Table Tag Write Accesses: 7255968
L1 IP Table Tag Read Accesses: 7255968
L1 RST Tag Write Accesses: 0
L1 RST Tag Read Accesses: 3473258
L1 RR Filter Write Accesses: 0
L1 RR Filter Read Accesses: 536771
test: 114828
L2 IP Table Read Accesses: 874454
L2 IP Table Write Accesses: 1206930
L2 IP Table Tag Read Accesses: 685320
L2 IP Table Tag Write Accesses: 685320

DRAM Statistics
 CHANNEL 0
 RQ ROW_BUFFER_HIT:      16773  ROW_BUFFER_MISS:      67829
 DBUS_CONGESTED:         57
 WQ ROW_BUFFER_HIT:       5964  ROW_BUFFER_MISS:      44814  FULL:          0

 AVG_CONGESTED_CYCLE: 3
 All warmup complete: 2
Channel 0 Bank busy for read cycles: 0
Channel 0 Bank busy for write cycles: 0
Channel 0
Rank 0
0banks busy for read cycles: 87378925
0banks busy for write cycles: 28146
1banks busy for read cycles: 6200789
1banks busy for write cycles: 3701137
2banks busy for read cycles: 1493673
2banks busy for write cycles: 934966
3banks busy for read cycles: 335651
3banks busy for write cycles: 312332
4banks busy for read cycles: 106795
4banks busy for write cycles: 154597
5banks busy for read cycles: 32093
5banks busy for write cycles: 89848
6banks busy for read cycles: 13402
6banks busy for write cycles: 72967
7banks busy for read cycles: 8983
7banks busy for write cycles: 66120
8banks busy for read cycles: 11135
8banks busy for write cycles: 75393

CPU 0 Branch Prediction Accuracy: 93.0432% MPKI: 12.9126 Average ROB Occupancy at Mispredict: 21.4872
Branch types
NOT_BRANCH: 40719314 81.4386%
BRANCH_DIRECT_JUMP: 461138 0.922276%
BRANCH_INDIRECT: 153420 0.30684%
BRANCH_CONDITIONAL: 6954239 13.9085%
BRANCH_DIRECT_CALL: 670235 1.34047%
BRANCH_INDIRECT_CALL: 168700 0.3374%
BRANCH_RETURN: 872871 1.74574%
BRANCH_OTHER: 0 0%

@sumon_overall_L1D     25367      6064     81435    106805    477693    477826
@Sumon_Early_by_class_L1D     14148      6795      2691        15
@Sumon_Late_by_class_L1D      3060      2241       430        15

@Sumon_Early_by_cycle_L1D      6901      2483      4596      1821      1852      3210      1087      1195      1156       892       146        28
@Sumon_Late_by_cycle_L1D      5687       374         2         0         1         0         0         0         0         0         0         0
@Sumon_Early_stream_L1D      3217      1708      1578      1278      1200      1961       759       924       766       654        78        25
@Sumon_Early_CS_L1D      2896       196      2293       115       271       703       142        77        39        45        18         0
@Sumon_Early_CPLX_L1D       377       310       451       209       181       383       154       168       240       172        44         2
@Sumon_Late_stream_L1D      2844       215         1         0         0         0         0         0         0         0         0         0
@Sumon_Late_CS_L1D      2128       112         1         0         0         0         0         0         0         0         0         0
@Sumon_Late_CPLX_L1D       411        18         0         0         1         0         0         0         0         0         0         0
@sumon_overall_L2C     59605      5815    194490    253848    485663    485663
@Sumon_Early_by_class_L2C      1402       578       614         0
@Sumon_Late_by_class_L2C         0         0         0         0

@Sumon_Early_by_cycle_L2C      9639      7484      7788      4999      3554      8871      4362      3260      1945      2026      1090      4587
@Sumon_Late_by_cycle_L2C      4385      1427         3         0         0         0         0         0         0         0         0         0
@Sumon_Early_stream_L2C         3        20        49        60         7        65        44        67       199       113        79       696
@Sumon_Early_CS_L2C         0         5       173         0         2        30        12        22         7         5        20       302
@Sumon_Early_CPLX_L2C         3         5         7        16         8        32        19        32        82        76        39       295
@Sumon_Late_stream_L2C         0         0         0         0         0         0         0         0         0         0         0         0
@Sumon_Late_CS_L2C         0         0         0         0         0         0         0         0         0         0         0         0
@Sumon_Late_CPLX_L2C         0         0         0         0         0         0         0         0         0         0         0         0
DRAM PAGES: 1048576
Allocated PAGES: 4938
