
*** ChampSim Multicore Out-of-Order Simulator ***

Warmup Instructions: 10000000
Simulation Instructions: 50000000
Number of CPUs: 1
LLC sets: 2048
LLC ways: 16
Off-chip DRAM Size: 4096 MB Channels: 1 Width: 64-bit Data Rate: 6400 MT/s
CPU 0 runs traces/clientserver/server_023.champsimtrace.xz
.xz
CPU 0 Bimodal branch predictor
BTB has LRU replacement policy
ITLB has LRU replacement policy
DTLB has LRU replacement policy
STLB has LRU replacement policy
L1I has LRU replacement policy
IP Table Entries: 256
Initialize DRRIP state for L1D
IP_Table L2 entries: 256
Initialize DRRIP state for L2C
LLC has LRU replacement policy
Heartbeat CPU 0 instructions: 10000001 cycles: 2874020 heartbeat IPC: 3.47945 cumulative IPC: 3.47945 (Simulation time: 0 hr 8 min 38 sec) 

Warmup complete CPU 0 instructions: 10000001 cycles: 2874020 (Simulation time: 0 hr 8 min 38 sec) 

Heartbeat CPU 0 instructions: 20000000 cycles: 25724299 heartbeat IPC: 0.437631 cumulative IPC: 0.437631 (Simulation time: 0 hr 16 min 58 sec) 
Heartbeat CPU 0 instructions: 30000003 cycles: 48569367 heartbeat IPC: 0.437731 cumulative IPC: 0.437681 (Simulation time: 0 hr 25 min 28 sec) 
Heartbeat CPU 0 instructions: 40000001 cycles: 71566739 heartbeat IPC: 0.434832 cumulative IPC: 0.436727 (Simulation time: 0 hr 42 min 7 sec) 
Heartbeat CPU 0 instructions: 50000000 cycles: 94804580 heartbeat IPC: 0.430333 cumulative IPC: 0.435111 (Simulation time: 0 hr 58 min 56 sec) 
Heartbeat CPU 0 instructions: 60000000 cycles: 117820470 heartbeat IPC: 0.434482 cumulative IPC: 0.434985 (Simulation time: 1 hr 14 min 31 sec) 
Finished CPU 0 instructions: 50000000 cycles: 114946453 cumulative IPC: 0.434985 (Simulation time: 1 hr 14 min 31 sec) 

ChampSim completed all CPUs

Region of Interest Statistics

CPU 0 cumulative IPC: 0.434985 instructions: 50000000 cycles: 114946453
ITLB TOTAL     ACCESS:    8434502  HIT:    7985414  MISS:     449088  HIT %:    94.6756  MISS %:    5.32442   MPKI: 8.98176
ITLB LOAD TRANSLATION ACCESS:    8434502  HIT:    7985414  MISS:     449088  HIT %:    94.6756  MISS %:    5.32442   MPKI: 8.98176
ITLB PREFETCH  REQUESTED:          0  ISSUED:          0  USEFUL:          0  USELESS:          0
ITLB USEFUL LOAD PREFETCHES:          0 PREFETCH ISSUED TO LOWER LEVEL:          0  ACCURACY: -nan
ITLB TIMELY PREFETCHES:          0 LATE PREFETCHES: 0 DROPPED PREFETCHES: 0
ITLB PREFETCHES SAME FILL-ORIGIN LEVEL: 0 DIFFERENT FILL-ORIGIN LEVEL: 0
ITLB AVERAGE MISS LATENCY: 9.06463 cycles
ITLB RQ	ACCESS:    9940976	FORWARD:          0	MERGED:    1394999	TO_CACHE:    8545977

DTLB TOTAL     ACCESS:   12288568  HIT:   11817275  MISS:     471293  HIT %:    96.1648  MISS %:    3.83521   MPKI: 9.42586
DTLB LOAD TRANSLATION ACCESS:   12288568  HIT:   11817275  MISS:     471293  HIT %:    96.1648  MISS %:    3.83521   MPKI: 9.42586
DTLB PREFETCH  REQUESTED:          0  ISSUED:          0  USEFUL:          0  USELESS:          0
DTLB USEFUL LOAD PREFETCHES:          0 PREFETCH ISSUED TO LOWER LEVEL:          0  ACCURACY: -nan
DTLB TIMELY PREFETCHES:          0 LATE PREFETCHES: 0 DROPPED PREFETCHES: 0
DTLB PREFETCHES SAME FILL-ORIGIN LEVEL: 0 DIFFERENT FILL-ORIGIN LEVEL: 0
DTLB AVERAGE MISS LATENCY: 9.4053 cycles
DTLB RQ	ACCESS:   15403246	FORWARD:          0	MERGED:    3094660	TO_CACHE:   12308586

STLB TOTAL     ACCESS:    1406154  HIT:    1403805  MISS:       2349  HIT %:    99.8329  MISS %:   0.167051   MPKI: 0.04698
STLB LOAD TRANSLATION ACCESS:     920381  HIT:     918032  MISS:       2349  HIT %:    99.7448  MISS %:    0.25522   MPKI: 0.04698
STLB TRANSLATION FROM L1D PREFETCHER ACCESS:     485773  HIT:     485773  MISS:          0  HIT %:        100  MISS %:          0   MPKI: 0
STLB PREFETCH  REQUESTED:          0  ISSUED:          0  USEFUL:          0  USELESS:          0
STLB USEFUL LOAD PREFETCHES:          0 PREFETCH ISSUED TO LOWER LEVEL:          0  ACCURACY: -nan
STLB TIMELY PREFETCHES:          0 LATE PREFETCHES: 0 DROPPED PREFETCHES: 0
STLB PREFETCHES SAME FILL-ORIGIN LEVEL: 0 DIFFERENT FILL-ORIGIN LEVEL: 0
STLB AVERAGE MISS LATENCY: 88.6671 cycles
STLB RQ	ACCESS:    1556012	FORWARD:          0	MERGED:     149858	TO_CACHE:    1406154

STLB Hit, L1D data hit: 0
STLB Hit, L2C data hit: 0
STLB Hit, LLC data hit: 0
STLB Hit, LLC data miss: 0
STLB STLB hints to L2: 0
L1D TOTAL     ACCESS:   15514495  HIT:   14356184  MISS:    1158311  HIT %:     92.534  MISS %:    7.46599   MPKI: 23.1662
L1D LOAD      ACCESS:    8638632  HIT:    7939286  MISS:     699346  HIT %:    91.9044  MISS %:    8.09556   MPKI: 13.9869
L1D RFO       ACCESS:    6310630  HIT:    6039324  MISS:     271306  HIT %:    95.7008  MISS %:    4.29919   MPKI: 5.42612
L1D PREFETCH  ACCESS:     565233  HIT:     377574  MISS:     187659  HIT %:    66.7997  MISS %:    33.2003   MPKI: 3.75318
L1D PREFETCH  REQUESTED:    1271535  ISSUED:    1271535  USEFUL:      64321  USELESS:     123351
L1D USEFUL LOAD PREFETCHES:      64321 PREFETCH ISSUED TO LOWER LEVEL:     241048  ACCURACY: 26.6839
L1D TIMELY PREFETCHES:      64321 LATE PREFETCHES: 53153 DROPPED PREFETCHES: 0
L1D PREFETCHES SAME FILL-ORIGIN LEVEL: 241048 DIFFERENT FILL-ORIGIN LEVEL: 0
L1D AVERAGE MISS LATENCY: 2.81925e+06 cycles
L1D RQ	ACCESS:   11933493	FORWARD:          0	MERGED:    3154195	TO_CACHE:    8676309
L1D WQ	ACCESS:    6773043	FORWARD:     103262	MERGED:      46106	TO_CACHE:    6726937
L1D PQ	ACCESS:     635904	FORWARD:          0	MERGED:          0	TO_CACHE:     635631

L1D UNIQUE REGIONS ACCESSED: 0
L1D REGIONS CONFLICTS: 0
L1D Cross Page Prefetch Requests: 0
L1D Same Page Prefetch Requests: 755679
L1D ROI Sum of L1D PQ occupancy: 8160038
L1D PREFETCHES PUSHED FROM L2C: 0
L1I TOTAL     ACCESS:    9522911  HIT:    6998947  MISS:    2523964  HIT %:    73.4959  MISS %:    26.5041   MPKI: 50.4793
L1I LOAD      ACCESS:    9522911  HIT:    6998947  MISS:    2523964  HIT %:    73.4959  MISS %:    26.5041   MPKI: 50.4793
L1I PREFETCH  REQUESTED:          0  ISSUED:          0  USEFUL:          0  USELESS:          0
L1I USEFUL LOAD PREFETCHES:          0 PREFETCH ISSUED TO LOWER LEVEL:          0  ACCURACY: -nan
L1I TIMELY PREFETCHES:          0 LATE PREFETCHES: 0 DROPPED PREFETCHES: 0
L1I PREFETCHES SAME FILL-ORIGIN LEVEL: 0 DIFFERENT FILL-ORIGIN LEVEL: 0
L1I AVERAGE MISS LATENCY: 16.7452 cycles
L1I RQ	ACCESS:   13804910	FORWARD:          0	MERGED:    3863934	TO_CACHE:    9940976

BTB TOTAL     ACCESS:    6178793  HIT:    4426191  MISS:    1752602  HIT %:    71.6352  MISS %:    28.3648   MPKI: 35.052
BTB BRANCH_DIRECT_JUMP	ACCESS:     566390  HIT:     416144  MISS:     150246
BTB BRANCH_INDIRECT	ACCESS:     195613  HIT:     162820  MISS:      32793
BTB BRANCH_CONDITIONAL	ACCESS:    3323726  HIT:    2859052  MISS:     464674
BTB BRANCH_DIRECT_CALL	ACCESS:     884206  HIT:     538148  MISS:     346058
BTB BRANCH_INDIRECT_CALL	ACCESS:     162323  HIT:      91555  MISS:      70768
BTB BRANCH_RETURN	ACCESS:    1046535  HIT:     358472  MISS:     688063
BTB BRANCH_OTHER ACCESS:          0  HIT:          0  MISS:          0

L2C TOTAL     ACCESS:    4676767  HIT:    4147598  MISS:     529169  HIT %:    88.6852  MISS %:    11.3148   MPKI: 10.5834
L2C LOAD      ACCESS:    3170106  HIT:    2872597  MISS:     297509  HIT %:    90.6152  MISS %:    9.38483   MPKI: 5.95018
L2C DATA LOAD MPKI: 1.607
L2C INSTRUCTION LOAD MPKI: 4.34318
L2C RFO       ACCESS:     270947  HIT:     187223  MISS:      83724  HIT %:    69.0995  MISS %:    30.9005   MPKI: 1.67448
L2C PREFETCH  ACCESS:     778425  HIT:     651700  MISS:     126725  HIT %:    83.7203  MISS %:    16.2797   MPKI: 2.5345
L2C DATA PREFETCH MPKI: 2.5345
L2C INSTRUCTION PREFETCH MPKI: 0
L2C WRITEBACK ACCESS:     454706  HIT:     435537  MISS:      19169  HIT %:    95.7843  MISS %:    4.21569   MPKI: 0.38338
L2C LOAD TRANSLATION ACCESS:       2583  HIT:        541  MISS:       2042  HIT %:    20.9446  MISS %:    79.0554   MPKI: 0.04084
L2C PREFETCH  REQUESTED:     550421  ISSUED:     550421  USEFUL:      18766  USELESS:     107899
L2C USEFUL LOAD PREFETCHES:      18766 PREFETCH ISSUED TO LOWER LEVEL:     129290  ACCURACY: 14.5147
L2C TIMELY PREFETCHES:      18766 LATE PREFETCHES: 2565 DROPPED PREFETCHES: 0
L2C PREFETCHES SAME FILL-ORIGIN LEVEL: 58477 DIFFERENT FILL-ORIGIN LEVEL: 0
L2C AVERAGE MISS LATENCY: 39.4326 cycles
L2C RQ	ACCESS:    3443809	FORWARD:          0	MERGED:          0	TO_CACHE:    3443636
L2C WQ	ACCESS:     454706	FORWARD:        187	MERGED:          0	TO_CACHE:     454706
L2C PQ	ACCESS:     791469	FORWARD:          0	MERGED:       6556	TO_CACHE:     784899

L2C Instructions Evicting Data 113505
L2C Translations Evicting Data 1506
L2C Data Evicting Data 185289
L2C Instructions Evicting Instructions 103104
L2C Translations Evicting Instructions 530
L2C Data Evicting Instructions 104051
L2C Instructions Evicting Translations 550
L2C Translations Evicting Translations 6
L2C Data Evicting Translations 1459
L2C Dense regions hint from L2: 0
PSCL5 TOTAL     ACCESS:       2349  HIT:       2349  MISS:          0  HIT %:        100  MISS %:          0   MPKI: 0
PSCL5 LOAD TRANSLATION ACCESS:       2349  HIT:       2349  MISS:          0  HIT %:        100  MISS %:          0   MPKI: 0
PSCL5 PREFETCH  REQUESTED:          0  ISSUED:          0  USEFUL:          0  USELESS:          0
PSCL5 USEFUL LOAD PREFETCHES:          0 PREFETCH ISSUED TO LOWER LEVEL:          0  ACCURACY: -nan
PSCL5 TIMELY PREFETCHES:          0 LATE PREFETCHES: 0 DROPPED PREFETCHES: 0
PSCL5 PREFETCHES SAME FILL-ORIGIN LEVEL: 0 DIFFERENT FILL-ORIGIN LEVEL: 0

PSCL4 TOTAL     ACCESS:       2218  HIT:       2207  MISS:         11  HIT %:    99.5041  MISS %:   0.495942   MPKI: 0.00022
PSCL4 LOAD TRANSLATION ACCESS:       2218  HIT:       2207  MISS:         11  HIT %:    99.5041  MISS %:   0.495942   MPKI: 0.00022
PSCL4 PREFETCH  REQUESTED:          0  ISSUED:          0  USEFUL:          0  USELESS:          0
PSCL4 USEFUL LOAD PREFETCHES:          0 PREFETCH ISSUED TO LOWER LEVEL:          0  ACCURACY: -nan
PSCL4 TIMELY PREFETCHES:          0 LATE PREFETCHES: 0 DROPPED PREFETCHES: 0
PSCL4 PREFETCHES SAME FILL-ORIGIN LEVEL: 0 DIFFERENT FILL-ORIGIN LEVEL: 0

PSCL3 TOTAL     ACCESS:       2334  HIT:       2323  MISS:         11  HIT %:    99.5287  MISS %:   0.471294   MPKI: 0.00022
PSCL3 LOAD TRANSLATION ACCESS:       2334  HIT:       2323  MISS:         11  HIT %:    99.5287  MISS %:   0.471294   MPKI: 0.00022
PSCL3 PREFETCH  REQUESTED:          0  ISSUED:          0  USEFUL:          0  USELESS:          0
PSCL3 USEFUL LOAD PREFETCHES:          0 PREFETCH ISSUED TO LOWER LEVEL:          0  ACCURACY: -nan
PSCL3 TIMELY PREFETCHES:          0 LATE PREFETCHES: 0 DROPPED PREFETCHES: 0
PSCL3 PREFETCHES SAME FILL-ORIGIN LEVEL: 0 DIFFERENT FILL-ORIGIN LEVEL: 0

PSCL2 TOTAL     ACCESS:       2349  HIT:       2134  MISS:        215  HIT %:    90.8472  MISS %:    9.15283   MPKI: 0.0043
PSCL2 LOAD TRANSLATION ACCESS:       2349  HIT:       2134  MISS:        215  HIT %:    90.8472  MISS %:    9.15283   MPKI: 0.0043
PSCL2 PREFETCH  REQUESTED:          0  ISSUED:          0  USEFUL:          0  USELESS:          0
PSCL2 USEFUL LOAD PREFETCHES:          0 PREFETCH ISSUED TO LOWER LEVEL:          0  ACCURACY: -nan
PSCL2 TIMELY PREFETCHES:          0 LATE PREFETCHES: 0 DROPPED PREFETCHES: 0
PSCL2 PREFETCHES SAME FILL-ORIGIN LEVEL: 0 DIFFERENT FILL-ORIGIN LEVEL: 0

LLC TOTAL     ACCESS:     640244  HIT:     601016  MISS:      39228  HIT %:     93.873  MISS %:    6.12704   MPKI: 0.78456
LLC LOAD      ACCESS:     295110  HIT:     289631  MISS:       5479  HIT %:    98.1434  MISS %:     1.8566   MPKI: 0.10958
LLC RFO       ACCESS:      83556  HIT:      65186  MISS:      18370  HIT %:    78.0147  MISS %:    21.9853   MPKI: 0.3674
LLC PREFETCH  ACCESS:     129284  HIT:     114146  MISS:      15138  HIT %:    88.2909  MISS %:    11.7091   MPKI: 0.30276
LLC WRITEBACK ACCESS:     130252  HIT:     130199  MISS:         53  HIT %:    99.9593  MISS %:  0.0406904   MPKI: 0.00106
LLC LOAD TRANSLATION ACCESS:       2042  HIT:       1854  MISS:        188  HIT %:    90.7933  MISS %:    9.20666   MPKI: 0.00376
LLC PREFETCH  REQUESTED:          0  ISSUED:          0  USEFUL:       1801  USELESS:      11533
LLC USEFUL LOAD PREFETCHES:       1801 PREFETCH ISSUED TO LOWER LEVEL:      15138  ACCURACY: 11.8972
LLC TIMELY PREFETCHES:       1801 LATE PREFETCHES: 0 DROPPED PREFETCHES: 0
LLC PREFETCHES SAME FILL-ORIGIN LEVEL: 0 DIFFERENT FILL-ORIGIN LEVEL: 0
LLC AVERAGE MISS LATENCY: 141.256 cycles
LLC RQ	ACCESS:     380710	FORWARD:          0	MERGED:          0	TO_CACHE:     380708
LLC WQ	ACCESS:     130252	FORWARD:          8	MERGED:          0	TO_CACHE:     130252
LLC PQ	ACCESS:     129290	FORWARD:          0	MERGED:          0	TO_CACHE:     129284

LLC Dense regions hint to LLC: 0

RAW hits: 522201
Loads Generated: 12455694
Loads sent to L1D: 11933493
Stores Generated: 6773032
Stores sent to L1D: 6773043
Major fault: 0 Minor fault: 2262
Allocated PAGES: 2262

stream: 
stream:times selected: 1215105
stream:pref_filled: 118612
stream:pref_useful: 18995
stream:pref_late: 44596
stream:misses: 13950
stream:misses_by_poll: 0

CS: 
CS:times selected: 168207
CS:pref_filled: 73805
CS:pref_useful: 52696
CS:pref_late: 4783
CS:misses: 11213
CS:misses_by_poll: 18

CPLX: 
CPLX:times selected: 1044419
CPLX:pref_filled: 31348
CPLX:pref_useful: 8400
CPLX:pref_late: 2974
CPLX:misses: 123187
CPLX:misses_by_poll: 7

NL_L1: 
NL:times selected: 6575
NL:pref_filled: 728
NL:pref_useful: 108
NL:pref_late: 12
NL:misses: 582
NL:misses_by_poll: 0

total selections: 2434306
total_filled: 187659
total_useful: 64321
total_late: 54653
total_polluted: 25
total_misses_after_warmup: 737028
conflicts: 3043835
Degree Incremented Times: 0
Degree Decremented Times: 127989

L1 IP Table Write Accesses: 5341831
L1 IP Table Read Accesses: 2297996
L1 RST Write Accesses: 1018953
L1 RST Read Accesses: 2037906
L1 CSPT Write Accesses: 1018953
L1 CSPT Read Accesses: 1894751
L1 RR Filter Tag Write Accesses: 635904
L1 RR Filter Tag Read Accesses: 45800504
L1 IP Table Tag Write Accesses: 8676314
L1 IP Table Tag Read Accesses: 8676314
L1 RST Tag Write Accesses: 0
L1 RST Tag Read Accesses: 8173264
L1 RR Filter Write Accesses: 0
L1 RR Filter Read Accesses: 1677315
test: 203198
L2 IP Table Read Accesses: 1207080
L2 IP Table Write Accesses: 1582477
L2 IP Table Tag Read Accesses: 881117
L2 IP Table Tag Write Accesses: 881117

DRAM Statistics
 CHANNEL 0
 RQ ROW_BUFFER_HIT:      17149  ROW_BUFFER_MISS:      22017
 DBUS_CONGESTED:         25
 WQ ROW_BUFFER_HIT:       1245  ROW_BUFFER_MISS:      11711  FULL:          0

 AVG_CONGESTED_CYCLE: 4
 All warmup complete: 2
Channel 0 Bank busy for read cycles: 0
Channel 0 Bank busy for write cycles: 0
Channel 0
Rank 0
0banks busy for read cycles: 112108645
0banks busy for write cycles: 3759
1banks busy for read cycles: 938769
1banks busy for write cycles: 453198
2banks busy for read cycles: 576990
2banks busy for write cycles: 144159
3banks busy for read cycles: 138990
3banks busy for write cycles: 68168
4banks busy for read cycles: 92399
4banks busy for write cycles: 54008
5banks busy for read cycles: 45786
5banks busy for write cycles: 38989
6banks busy for read cycles: 35742
6banks busy for write cycles: 35072
7banks busy for read cycles: 33103
7banks busy for write cycles: 38240
8banks busy for read cycles: 76701
8banks busy for write cycles: 63736

CPU 0 Branch Prediction Accuracy: 91.7383% MPKI: 15.1397 Average ROB Occupancy at Mispredict: 18.2641
Branch types
NOT_BRANCH: 40837081 81.6742%
BRANCH_DIRECT_JUMP: 566390 1.13278%
BRANCH_INDIRECT: 195613 0.391226%
BRANCH_CONDITIONAL: 6307490 12.615%
BRANCH_DIRECT_CALL: 884206 1.76841%
BRANCH_INDIRECT_CALL: 162323 0.324646%
BRANCH_RETURN: 1046535 2.09307%
BRANCH_OTHER: 0 0%

@sumon_overall_L1D     64321     53153    123351    187659   1271535   1271535
@Sumon_Early_by_class_L1D     12951     45207      5228         8
@Sumon_Late_by_class_L1D     43809      4586      2678         8

@Sumon_Early_by_cycle_L1D     49334      3717      2425       921       622      3200       930      1659       449       866        99        99
@Sumon_Late_by_cycle_L1D     52062      1085         4         2         0         0         0         0         0         0         0         0
@Sumon_Early_stream_L1D      5600      1160      1597       803       282       586       723      1048       255       705        94        98
@Sumon_Early_CS_L1D     39275      2346       638        52       155      2275        58       364        21        22         0         1
@Sumon_Early_CPLX_L1D      4124       144       149        47        86       188       141       233        49        63         4         0
@Sumon_Late_stream_L1D     43433       376         0         0         0         0         0         0         0         0         0         0
@Sumon_Late_CS_L1D      3935       645         4         2         0         0         0         0         0         0         0         0
@Sumon_Late_CPLX_L1D      2661        17         0         0         0         0         0         0         0         0         0         0
@sumon_overall_L2C     18766      2565    107899    126725    550421    550421
@Sumon_Early_by_class_L2C      2127       193       470         0
@Sumon_Late_by_class_L2C         0         0         0         0

@Sumon_Early_by_cycle_L2C      3451      1283      1405      1145       457      2669      1607       839       332      1042       554      3982
@Sumon_Late_by_cycle_L2C      2026       539         0         0         0         0         0         0         0         0         0         0
@Sumon_Early_stream_L2C         1         5        26        29         2         1        11        40        41       153       163      1655
@Sumon_Early_CS_L2C         8        42         2         1         2         0         0         0         5         0         2       131
@Sumon_Early_CPLX_L2C         0         1         2         1         0         0         0         8         6        35        15       402
@Sumon_Late_stream_L2C         0         0         0         0         0         0         0         0         0         0         0         0
@Sumon_Late_CS_L2C         0         0         0         0         0         0         0         0         0         0         0         0
@Sumon_Late_CPLX_L2C         0         0         0         0         0         0         0         0         0         0         0         0
DRAM PAGES: 1048576
Allocated PAGES: 2262
