
*** ChampSim Multicore Out-of-Order Simulator ***

Warmup Instructions: 10000000
Simulation Instructions: 50000000
Number of CPUs: 1
LLC sets: 2048
LLC ways: 16
Off-chip DRAM Size: 4096 MB Channels: 1 Width: 64-bit Data Rate: 200 MT/s
CPU 0 runs traces/SPEC2017/603.bwaves_s-1740B.champsimtrace.xz
.xz
CPU 0 Bimodal branch predictor
BTB has LRU replacement policy
ITLB has LRU replacement policy
DTLB has LRU replacement policy
STLB has LRU replacement policy
L1I has LRU replacement policy
IP Table Entries: 256
L1D has LRU replacement policy
IP_Table L2 entries: 256
L2C has LRU replacement policy
LLC has LRU replacement policy
Heartbeat CPU 0 instructions: 10000000 cycles: 3310419 heartbeat IPC: 3.02077 cumulative IPC: 3.02077 (Simulation time: 0 hr 14 min 13 sec) 

Warmup complete CPU 0 instructions: 10000003 cycles: 3310420 (Simulation time: 0 hr 14 min 13 sec) 

Heartbeat CPU 0 instructions: 20000000 cycles: 34633302 heartbeat IPC: 0.319255 cumulative IPC: 0.319255 (Simulation time: 0 hr 29 min 26 sec) 
Heartbeat CPU 0 instructions: 30000003 cycles: 65962025 heartbeat IPC: 0.319196 cumulative IPC: 0.319226 (Simulation time: 0 hr 44 min 37 sec) 
Heartbeat CPU 0 instructions: 40000000 cycles: 97288575 heartbeat IPC: 0.319218 cumulative IPC: 0.319223 (Simulation time: 0 hr 59 min 41 sec) 
Heartbeat CPU 0 instructions: 50000000 cycles: 128618818 heartbeat IPC: 0.31918 cumulative IPC: 0.319212 (Simulation time: 1 hr 12 min 31 sec) 
Heartbeat CPU 0 instructions: 60000000 cycles: 159942572 heartbeat IPC: 0.319247 cumulative IPC: 0.319219 (Simulation time: 1 hr 22 min 51 sec) 
Finished CPU 0 instructions: 50000000 cycles: 156632156 cumulative IPC: 0.319219 (Simulation time: 1 hr 22 min 51 sec) 

ChampSim completed all CPUs

Region of Interest Statistics

CPU 0 cumulative IPC: 0.319219 instructions: 50000000 cycles: 156632156
ITLB TOTAL     ACCESS:    6356445  HIT:    6356445  MISS:          0  HIT %:        100  MISS %:          0   MPKI: 0
ITLB LOAD TRANSLATION ACCESS:    6356445  HIT:    6356445  MISS:          0  HIT %:        100  MISS %:          0   MPKI: 0
ITLB PREFETCH  REQUESTED:          0  ISSUED:          0  USEFUL:          0  USELESS:          0
ITLB USEFUL LOAD PREFETCHES:          0 PREFETCH ISSUED TO LOWER LEVEL:          0  ACCURACY: -nan
ITLB TIMELY PREFETCHES:          0 LATE PREFETCHES: 0 DROPPED PREFETCHES: 0
ITLB PREFETCHES SAME FILL-ORIGIN LEVEL: 0 DIFFERENT FILL-ORIGIN LEVEL: 0
ITLB AVERAGE MISS LATENCY: -nan cycles
ITLB RQ	ACCESS:    8462975	FORWARD:          0	MERGED:    2106531	TO_CACHE:    6356444

DTLB TOTAL     ACCESS:   16570304  HIT:   16468264  MISS:     102040  HIT %:    99.3842  MISS %:     0.6158   MPKI: 2.0408
DTLB LOAD TRANSLATION ACCESS:   16570304  HIT:   16468264  MISS:     102040  HIT %:    99.3842  MISS %:     0.6158   MPKI: 2.0408
DTLB PREFETCH  REQUESTED:          0  ISSUED:          0  USEFUL:          0  USELESS:          0
DTLB USEFUL LOAD PREFETCHES:          0 PREFETCH ISSUED TO LOWER LEVEL:          0  ACCURACY: -nan
DTLB TIMELY PREFETCHES:          0 LATE PREFETCHES: 0 DROPPED PREFETCHES: 0
DTLB PREFETCHES SAME FILL-ORIGIN LEVEL: 0 DIFFERENT FILL-ORIGIN LEVEL: 0
DTLB AVERAGE MISS LATENCY: 179.128 cycles
DTLB RQ	ACCESS:   19161178	FORWARD:          0	MERGED:    2576153	TO_CACHE:   16585025

STLB TOTAL     ACCESS:    2648971  HIT:    2634129  MISS:      14842  HIT %:    99.4397  MISS %:   0.560293   MPKI: 0.29684
STLB LOAD TRANSLATION ACCESS:     102040  HIT:      87198  MISS:      14842  HIT %:    85.4547  MISS %:    14.5453   MPKI: 0.29684
STLB TRANSLATION FROM L1D PREFETCHER ACCESS:    2546931  HIT:    2546931  MISS:          0  HIT %:        100  MISS %:          0   MPKI: 0
STLB PREFETCH  REQUESTED:          0  ISSUED:          0  USEFUL:          0  USELESS:          0
STLB USEFUL LOAD PREFETCHES:          0 PREFETCH ISSUED TO LOWER LEVEL:          0  ACCURACY: -nan
STLB TIMELY PREFETCHES:          0 LATE PREFETCHES: 0 DROPPED PREFETCHES: 0
STLB PREFETCHES SAME FILL-ORIGIN LEVEL: 0 DIFFERENT FILL-ORIGIN LEVEL: 0
STLB AVERAGE MISS LATENCY: 1143.94 cycles
STLB RQ	ACCESS:   11473619	FORWARD:          0	MERGED:    8824649	TO_CACHE:    2648970

STLB Hit, L1D data hit: 0
STLB Hit, L2C data hit: 0
STLB Hit, LLC data hit: 0
STLB Hit, LLC data miss: 0
STLB STLB hints to L2: 0
L1D TOTAL     ACCESS:   29252968  HIT:   28250515  MISS:    1002453  HIT %:    96.5732  MISS %:    3.42684   MPKI: 20.0491
L1D LOAD      ACCESS:   16319531  HIT:   16163241  MISS:     156290  HIT %:    99.0423  MISS %:   0.957687   MPKI: 3.1258
L1D RFO       ACCESS:    2560317  HIT:    2535958  MISS:      24359  HIT %:    99.0486  MISS %:   0.951406   MPKI: 0.48718
L1D PREFETCH  ACCESS:   10373120  HIT:    9551316  MISS:     821804  HIT %:    92.0776  MISS %:    7.92244   MPKI: 16.4361
L1D PREFETCH  REQUESTED:   42846312  ISSUED:   22854947  USEFUL:     818929  USELESS:       2897
L1D USEFUL LOAD PREFETCHES:     818929 PREFETCH ISSUED TO LOWER LEVEL:    9528108  ACCURACY: 8.59488
L1D TIMELY PREFETCHES:     818929 LATE PREFETCHES: 93628 DROPPED PREFETCHES: 0
L1D PREFETCHES SAME FILL-ORIGIN LEVEL: 9528108 DIFFERENT FILL-ORIGIN LEVEL: 0
L1D AVERAGE MISS LATENCY: 7.63879e+06 cycles
L1D RQ	ACCESS:   21239500	FORWARD:          0	MERGED:    4815750	TO_CACHE:   16349456
L1D WQ	ACCESS:    2816683	FORWARD:      74294	MERGED:       4961	TO_CACHE:    2811722
L1D PQ	ACCESS:   11483368	FORWARD:          0	MERGED:     111789	TO_CACHE:   11371579

L1D UNIQUE REGIONS ACCESSED: 0
L1D REGIONS CONFLICTS: 0
L1D Cross Page Prefetch Requests: 0
L1D Same Page Prefetch Requests: 14239644
L1D ROI Sum of L1D PQ occupancy: 707999349
L1D PREFETCHES PUSHED FROM L2C: 0
L1I TOTAL     ACCESS:    8462975  HIT:    8462975  MISS:          0  HIT %:        100  MISS %:          0   MPKI: 0
L1I LOAD      ACCESS:    8462975  HIT:    8462975  MISS:          0  HIT %:        100  MISS %:          0   MPKI: 0
L1I PREFETCH  REQUESTED:          0  ISSUED:          0  USEFUL:          0  USELESS:          0
L1I USEFUL LOAD PREFETCHES:          0 PREFETCH ISSUED TO LOWER LEVEL:          0  ACCURACY: -nan
L1I TIMELY PREFETCHES:          0 LATE PREFETCHES: 0 DROPPED PREFETCHES: 0
L1I PREFETCHES SAME FILL-ORIGIN LEVEL: 0 DIFFERENT FILL-ORIGIN LEVEL: 0
L1I AVERAGE MISS LATENCY: -nan cycles
L1I RQ	ACCESS:   11737609	FORWARD:          0	MERGED:    3274634	TO_CACHE:    8462975

BTB TOTAL     ACCESS:    1208720  HIT:    1208715  MISS:          5  HIT %:    99.9996  MISS %: 0.000413661   MPKI: 0.0001
BTB BRANCH_DIRECT_JUMP	ACCESS:          0  HIT:          0  MISS:          0
BTB BRANCH_INDIRECT	ACCESS:          0  HIT:          0  MISS:          0
BTB BRANCH_CONDITIONAL	ACCESS:    1208720  HIT:    1208715  MISS:          5
BTB BRANCH_DIRECT_CALL	ACCESS:          0  HIT:          0  MISS:          0
BTB BRANCH_INDIRECT_CALL	ACCESS:          0  HIT:          0  MISS:          0
BTB BRANCH_RETURN	ACCESS:          0  HIT:          0  MISS:          0
BTB BRANCH_OTHER ACCESS:          0  HIT:          0  MISS:          0

L2C TOTAL     ACCESS:    2212958  HIT:    1261017  MISS:     951941  HIT %:    56.9833  MISS %:    43.0167   MPKI: 19.0388
L2C LOAD      ACCESS:      62662  HIT:      31477  MISS:      31185  HIT %:     50.233  MISS %:     49.767   MPKI: 0.6237
L2C DATA LOAD MPKI: 0.6237
L2C INSTRUCTION LOAD MPKI: 0
L2C RFO       ACCESS:      24359  HIT:          0  MISS:      24359  HIT %:          0  MISS %:        100   MPKI: 0.48718
L2C PREFETCH  ACCESS:    2086360  HIT:    1191844  MISS:     894516  HIT %:    57.1255  MISS %:    42.8745   MPKI: 17.8903
L2C DATA PREFETCH MPKI: 17.8903
L2C INSTRUCTION PREFETCH MPKI: 0
L2C WRITEBACK ACCESS:      24734  HIT:      24734  MISS:          0  HIT %:        100  MISS %:          0   MPKI: 0
L2C LOAD TRANSLATION ACCESS:      14843  HIT:      12962  MISS:       1881  HIT %:    87.3274  MISS %:    12.6726   MPKI: 0.03762
L2C PREFETCH  REQUESTED:    3503284  ISSUED:    2985328  USEFUL:      29995  USELESS:     864868
L2C USEFUL LOAD PREFETCHES:      29995 PREFETCH ISSUED TO LOWER LEVEL:     905463  ACCURACY: 3.31267
L2C TIMELY PREFETCHES:      29995 LATE PREFETCHES: 10935 DROPPED PREFETCHES: 0
L2C PREFETCHES SAME FILL-ORIGIN LEVEL: 785257 DIFFERENT FILL-ORIGIN LEVEL: 0
L2C AVERAGE MISS LATENCY: 4319.05 cycles
L2C RQ	ACCESS:     101868	FORWARD:          0	MERGED:          0	TO_CACHE:     101868
L2C WQ	ACCESS:      24734	FORWARD:          0	MERGED:          0	TO_CACHE:      24734
L2C PQ	ACCESS:    3900769	FORWARD:          0	MERGED:    1135725	TO_CACHE:    2765044

L2C Instructions Evicting Data 0
L2C Translations Evicting Data 1881
L2C Data Evicting Data 948177
L2C Instructions Evicting Instructions 0
L2C Translations Evicting Instructions 0
L2C Data Evicting Instructions 0
L2C Instructions Evicting Translations 0
L2C Translations Evicting Translations 0
L2C Data Evicting Translations 1883
L2C Dense regions hint from L2: 0
PSCL5 TOTAL     ACCESS:      14842  HIT:      14842  MISS:          0  HIT %:        100  MISS %:          0   MPKI: 0
PSCL5 LOAD TRANSLATION ACCESS:      14842  HIT:      14842  MISS:          0  HIT %:        100  MISS %:          0   MPKI: 0
PSCL5 PREFETCH  REQUESTED:          0  ISSUED:          0  USEFUL:          0  USELESS:          0
PSCL5 USEFUL LOAD PREFETCHES:          0 PREFETCH ISSUED TO LOWER LEVEL:          0  ACCURACY: -nan
PSCL5 TIMELY PREFETCHES:          0 LATE PREFETCHES: 0 DROPPED PREFETCHES: 0
PSCL5 PREFETCHES SAME FILL-ORIGIN LEVEL: 0 DIFFERENT FILL-ORIGIN LEVEL: 0

PSCL4 TOTAL     ACCESS:      14842  HIT:      14842  MISS:          0  HIT %:        100  MISS %:          0   MPKI: 0
PSCL4 LOAD TRANSLATION ACCESS:      14842  HIT:      14842  MISS:          0  HIT %:        100  MISS %:          0   MPKI: 0
PSCL4 PREFETCH  REQUESTED:          0  ISSUED:          0  USEFUL:          0  USELESS:          0
PSCL4 USEFUL LOAD PREFETCHES:          0 PREFETCH ISSUED TO LOWER LEVEL:          0  ACCURACY: -nan
PSCL4 TIMELY PREFETCHES:          0 LATE PREFETCHES: 0 DROPPED PREFETCHES: 0
PSCL4 PREFETCHES SAME FILL-ORIGIN LEVEL: 0 DIFFERENT FILL-ORIGIN LEVEL: 0

PSCL3 TOTAL     ACCESS:      14842  HIT:      14842  MISS:          0  HIT %:        100  MISS %:          0   MPKI: 0
PSCL3 LOAD TRANSLATION ACCESS:      14842  HIT:      14842  MISS:          0  HIT %:        100  MISS %:          0   MPKI: 0
PSCL3 PREFETCH  REQUESTED:          0  ISSUED:          0  USEFUL:          0  USELESS:          0
PSCL3 USEFUL LOAD PREFETCHES:          0 PREFETCH ISSUED TO LOWER LEVEL:          0  ACCURACY: -nan
PSCL3 TIMELY PREFETCHES:          0 LATE PREFETCHES: 0 DROPPED PREFETCHES: 0
PSCL3 PREFETCHES SAME FILL-ORIGIN LEVEL: 0 DIFFERENT FILL-ORIGIN LEVEL: 0

PSCL2 TOTAL     ACCESS:      14842  HIT:      14813  MISS:         29  HIT %:    99.8046  MISS %:   0.195391   MPKI: 0.00058
PSCL2 LOAD TRANSLATION ACCESS:      14842  HIT:      14813  MISS:         29  HIT %:    99.8046  MISS %:   0.195391   MPKI: 0.00058
PSCL2 PREFETCH  REQUESTED:          0  ISSUED:          0  USEFUL:          0  USELESS:          0
PSCL2 USEFUL LOAD PREFETCHES:          0 PREFETCH ISSUED TO LOWER LEVEL:          0  ACCURACY: -nan
PSCL2 TIMELY PREFETCHES:          0 LATE PREFETCHES: 0 DROPPED PREFETCHES: 0
PSCL2 PREFETCHES SAME FILL-ORIGIN LEVEL: 0 DIFFERENT FILL-ORIGIN LEVEL: 0

LLC TOTAL     ACCESS:     976323  HIT:      24382  MISS:     951941  HIT %:    2.49733  MISS %:    97.5027   MPKI: 19.0388
LLC LOAD      ACCESS:      20250  HIT:          0  MISS:      20250  HIT %:          0  MISS %:        100   MPKI: 0.405
LLC RFO       ACCESS:      24359  HIT:          0  MISS:      24359  HIT %:          0  MISS %:        100   MPKI: 0.48718
LLC PREFETCH  ACCESS:     905451  HIT:          0  MISS:     905451  HIT %:          0  MISS %:        100   MPKI: 18.109
LLC WRITEBACK ACCESS:      24382  HIT:      24382  MISS:          0  HIT %:        100  MISS %:          0   MPKI: 0
LLC LOAD TRANSLATION ACCESS:       1881  HIT:          0  MISS:       1881  HIT %:          0  MISS %:        100   MPKI: 0.03762
LLC PREFETCH  REQUESTED:          0  ISSUED:          0  USEFUL:          0  USELESS:     905553
LLC USEFUL LOAD PREFETCHES:          0 PREFETCH ISSUED TO LOWER LEVEL:     905464  ACCURACY: 0
LLC TIMELY PREFETCHES:          0 LATE PREFETCHES: 0 DROPPED PREFETCHES: 0
LLC PREFETCHES SAME FILL-ORIGIN LEVEL: 0 DIFFERENT FILL-ORIGIN LEVEL: 0
LLC AVERAGE MISS LATENCY: 4322.51 cycles
LLC RQ	ACCESS:      46494	FORWARD:          0	MERGED:          0	TO_CACHE:      46494
LLC WQ	ACCESS:      24382	FORWARD:          0	MERGED:          0	TO_CACHE:      24382
LLC PQ	ACCESS:     905463	FORWARD:          0	MERGED:          0	TO_CACHE:     905463

LLC Dense regions hint to LLC: 0

RAW hits: 250509
Loads Generated: 21490010
Loads sent to L1D: 21239500
Stores Generated: 2816683
Stores sent to L1D: 2816683
Major fault: 0 Minor fault: 17247
Allocated PAGES: 17247

stream: 
stream:times selected: 6908823
stream:pref_filled: 991113
stream:pref_useful: 990967
stream:pref_late: 92611
stream:misses: 243
stream:misses_by_poll: 0

CS: 
CS:times selected: 6583302
CS:pref_filled: 6163
CS:pref_useful: 6163
CS:pref_late: 1189
CS:misses: 186289
CS:misses_by_poll: 56

CPLX: 
CPLX:times selected: 325312
CPLX:pref_filled: 15248
CPLX:pref_useful: 11701
CPLX:pref_late: 25
CPLX:misses: 3700
CPLX:misses_by_poll: 33

NL_L1: 
NL:times selected: 2344
NL:pref_filled: 37
NL:pref_useful: 37
NL:pref_late: 2
NL:misses: 5
NL:misses_by_poll: 0

total selections: 13819781
total_filled: 821804
total_useful: 818929
total_late: 94115
total_polluted: 89
total_misses_after_warmup: 186220
conflicts: 12
Degree Incremented Times: 182666
Degree Decremented Times: 0

L1 IP Table Write Accesses: 16348563
L1 IP Table Read Accesses: 16348551
L1 RST Write Accesses: 5779666
L1 RST Read Accesses: 11559332
L1 CSPT Write Accesses: 5779666
L1 CSPT Read Accesses: 6577997
L1 RR Filter Tag Write Accesses: 31474733
L1 RR Filter Tag Read Accesses: 1471541954
L1 IP Table Tag Write Accesses: 16349461
L1 IP Table Tag Read Accesses: 16349461
L1 RST Tag Write Accesses: 0
L1 RST Tag Read Accesses: 52012385
L1 RR Filter Write Accesses: 0
L1 RR Filter Read Accesses: 49341711
test: 136398
L2 IP Table Read Accesses: 1264198
L2 IP Table Write Accesses: 1201536
L2 IP Table Tag Read Accesses: 632099
L2 IP Table Tag Write Accesses: 632099

DRAM Statistics
 CHANNEL 0
 RQ ROW_BUFFER_HIT:     747067  ROW_BUFFER_MISS:     204873
 DBUS_CONGESTED:     978236
 WQ ROW_BUFFER_HIT:       2991  ROW_BUFFER_MISS:      21243  FULL:          0

 AVG_CONGESTED_CYCLE: 157
 All warmup complete: 2
Channel 0 Bank busy for read cycles: 0
Channel 0 Bank busy for write cycles: 0
Channel 0
Rank 0
0banks busy for read cycles: 5481
0banks busy for write cycles: 0
1banks busy for read cycles: 1040506
1banks busy for write cycles: 5215
2banks busy for read cycles: 1556801
2banks busy for write cycles: 5211
3banks busy for read cycles: 2332681
3banks busy for write cycles: 5203
4banks busy for read cycles: 3318810
4banks busy for write cycles: 5206
5banks busy for read cycles: 4981243
5banks busy for write cycles: 6228
6banks busy for read cycles: 8026085
6banks busy for write cycles: 5526
7banks busy for read cycles: 21235720
7banks busy for write cycles: 30674
8banks busy for read cycles: 109926639
8banks busy for write cycles: 4144928

CPU 0 Branch Prediction Accuracy: 81.2318% MPKI: 4.68478 Average ROB Occupancy at Mispredict: 71.0517
Branch types
NOT_BRANCH: 48751613 97.5032%
BRANCH_DIRECT_JUMP: 0 0%
BRANCH_INDIRECT: 0 0%
BRANCH_CONDITIONAL: 1248062 2.49612%
BRANCH_DIRECT_CALL: 0 0%
BRANCH_INDIRECT_CALL: 0 0%
BRANCH_RETURN: 0 0%
BRANCH_OTHER: 0 0%

@sumon_overall_L1D    818929     93628      2897    821804  22854947  42846312
@Sumon_Early_by_class_L1D    803818      4953     10126         1
@Sumon_Late_by_class_L1D     92142      1175        23         1

@Sumon_Early_by_cycle_L1D      9412     11380     24049     28384     40605    192476    188853    182293     23872    117372       212        21
@Sumon_Late_by_cycle_L1D      5496      7663     12544     10394      8394     27095     15674      6310        58         0         0         0
@Sumon_Early_stream_L1D      9242     11208     23574     27716     39650    190733    188373    181662     23367    108097       196         0
@Sumon_Early_CS_L1D       110       129       316       460       740      1594       457       605       413       129         0         0
@Sumon_Early_CPLX_L1D        59        38       154       198       214       144        20        24        92      9146        16        21
@Sumon_Late_stream_L1D      5155      7577     12443     10316      8322     26799     15376      6097        57         0         0         0
@Sumon_Late_CS_L1D        52        86        98        74        70       290       293       211         1         0         0         0
@Sumon_Late_CPLX_L1D         2         0         3         4         2         6         4         2         0         0         0         0
@sumon_overall_L2C     29995     10935    864868    894516   2985328   3503284
@Sumon_Early_by_class_L2C     29871       121         3         0
@Sumon_Late_by_class_L2C     10608       306         0         0

@Sumon_Early_by_cycle_L2C       215       616      1019       982      1289      6598      9981      8466       732        33        34        30
@Sumon_Late_by_cycle_L2C       369       556       923       592       780      2853      3715      1138         9         0         0         0
@Sumon_Early_stream_L2C       210       609      1012       970      1283      6577      9944      8445       731        26        34        30
@Sumon_Early_CS_L2C         5         7         7        12         6        21        37        21         1         4         0         0
@Sumon_Early_CPLX_L2C         0         0         0         0         0         0         0         0         0         3         0         0
@Sumon_Late_stream_L2C       347       551       912       590       772      2814      3605      1009         8         0         0         0
@Sumon_Late_CS_L2C         1         5        11         2         8        39       110       129         1         0         0         0
@Sumon_Late_CPLX_L2C         0         0         0         0         0         0         0         0         0         0         0         0
DRAM PAGES: 1048576
Allocated PAGES: 17247
