
*** ChampSim Multicore Out-of-Order Simulator ***

Warmup Instructions: 10000000
Simulation Instructions: 50000000
Number of CPUs: 1
LLC sets: 2048
LLC ways: 16
Off-chip DRAM Size: 4096 MB Channels: 1 Width: 64-bit Data Rate: 200 MT/s
CPU 0 runs traces/SPEC2017/605.mcf_s-994B.champsimtrace.xz
.xz
CPU 0 Bimodal branch predictor
BTB has LRU replacement policy
ITLB has LRU replacement policy
DTLB has LRU replacement policy
STLB has LRU replacement policy
L1I has LRU replacement policy
IP Table Entries: 256
L1D has LRU replacement policy
IP_Table L2 entries: 256
L2C has LRU replacement policy
LLC has LRU replacement policy
Heartbeat CPU 0 instructions: 10000000 cycles: 3241646 heartbeat IPC: 3.08485 cumulative IPC: 3.08485 (Simulation time: 0 hr 14 min 14 sec) 

Warmup complete CPU 0 instructions: 10000004 cycles: 3241647 (Simulation time: 0 hr 14 min 14 sec) 

Heartbeat CPU 0 instructions: 20000000 cycles: 58403934 heartbeat IPC: 0.181283 cumulative IPC: 0.181283 (Simulation time: 0 hr 28 min 18 sec) 
Heartbeat CPU 0 instructions: 30000003 cycles: 115343437 heartbeat IPC: 0.175625 cumulative IPC: 0.178409 (Simulation time: 0 hr 42 min 16 sec) 
Heartbeat CPU 0 instructions: 40000001 cycles: 164915559 heartbeat IPC: 0.201726 cumulative IPC: 0.185559 (Simulation time: 0 hr 55 min 55 sec) 
Heartbeat CPU 0 instructions: 50000001 cycles: 305356668 heartbeat IPC: 0.0712042 cumulative IPC: 0.1324 (Simulation time: 1 hr 14 min 5 sec) 
Heartbeat CPU 0 instructions: 60000000 cycles: 374402721 heartbeat IPC: 0.144831 cumulative IPC: 0.134712 (Simulation time: 1 hr 24 min 17 sec) 
Finished CPU 0 instructions: 50000000 cycles: 371161080 cumulative IPC: 0.134712 (Simulation time: 1 hr 24 min 17 sec) 

ChampSim completed all CPUs

Region of Interest Statistics

CPU 0 cumulative IPC: 0.134712 instructions: 50000000 cycles: 371161080
ITLB TOTAL     ACCESS:    8952550  HIT:    8952550  MISS:          0  HIT %:        100  MISS %:          0   MPKI: 0
ITLB LOAD TRANSLATION ACCESS:    8952550  HIT:    8952550  MISS:          0  HIT %:        100  MISS %:          0   MPKI: 0
ITLB PREFETCH  REQUESTED:          0  ISSUED:          0  USEFUL:          0  USELESS:          0
ITLB USEFUL LOAD PREFETCHES:          0 PREFETCH ISSUED TO LOWER LEVEL:          0  ACCURACY: -nan
ITLB TIMELY PREFETCHES:          0 LATE PREFETCHES: 0 DROPPED PREFETCHES: 0
ITLB PREFETCHES SAME FILL-ORIGIN LEVEL: 0 DIFFERENT FILL-ORIGIN LEVEL: 0
ITLB AVERAGE MISS LATENCY: -nan cycles
ITLB RQ	ACCESS:    9152183	FORWARD:          0	MERGED:     199635	TO_CACHE:    8952548

DTLB TOTAL     ACCESS:   16532177  HIT:   15798053  MISS:     734124  HIT %:    95.5594  MISS %:    4.44058   MPKI: 14.6825
DTLB LOAD TRANSLATION ACCESS:   16532177  HIT:   15798053  MISS:     734124  HIT %:    95.5594  MISS %:    4.44058   MPKI: 14.6825
DTLB PREFETCH  REQUESTED:          0  ISSUED:          0  USEFUL:          0  USELESS:          0
DTLB USEFUL LOAD PREFETCHES:          0 PREFETCH ISSUED TO LOWER LEVEL:          0  ACCURACY: -nan
DTLB TIMELY PREFETCHES:          0 LATE PREFETCHES: 0 DROPPED PREFETCHES: 0
DTLB PREFETCHES SAME FILL-ORIGIN LEVEL: 0 DIFFERENT FILL-ORIGIN LEVEL: 0
DTLB AVERAGE MISS LATENCY: 116.675 cycles
DTLB RQ	ACCESS:   19378362	FORWARD:          0	MERGED:    2695560	TO_CACHE:   16682802

STLB TOTAL     ACCESS:    3692028  HIT:    3319669  MISS:     372359  HIT %:    89.9145  MISS %:    10.0855   MPKI: 7.44718
STLB LOAD TRANSLATION ACCESS:     734124  HIT:     361860  MISS:     372264  HIT %:    49.2914  MISS %:    50.7086   MPKI: 7.44528
STLB TRANSLATION FROM L1D PREFETCHER ACCESS:    2957904  HIT:    2957809  MISS:         95  HIT %:    99.9968  MISS %: 0.00321173   MPKI: 0.0019
STLB PREFETCH  REQUESTED:          0  ISSUED:          0  USEFUL:         93  USELESS:          2
STLB USEFUL LOAD PREFETCHES:         93 PREFETCH ISSUED TO LOWER LEVEL:          0  ACCURACY: inf
STLB TIMELY PREFETCHES:         93 LATE PREFETCHES: 0 DROPPED PREFETCHES: 0
STLB PREFETCHES SAME FILL-ORIGIN LEVEL: 0 DIFFERENT FILL-ORIGIN LEVEL: 0
STLB AVERAGE MISS LATENCY: 211.771 cycles
STLB RQ	ACCESS:    4425230	FORWARD:          0	MERGED:     733131	TO_CACHE:    3692099

STLB Hit, L1D data hit: 0
STLB Hit, L2C data hit: 0
STLB Hit, LLC data hit: 0
STLB Hit, LLC data miss: 0
STLB STLB hints to L2: 0
L1D TOTAL     ACCESS:   22558108  HIT:   19323378  MISS:    3234730  HIT %:    85.6605  MISS %:    14.3395   MPKI: 64.6946
L1D LOAD      ACCESS:   14263189  HIT:   12585530  MISS:    1677659  HIT %:    88.2378  MISS %:    11.7622   MPKI: 33.5532
L1D RFO       ACCESS:    5065977  HIT:    5052189  MISS:      13788  HIT %:    99.7278  MISS %:   0.272169   MPKI: 0.27576
L1D PREFETCH  ACCESS:    3228942  HIT:    1685659  MISS:    1543283  HIT %:    52.2047  MISS %:    47.7953   MPKI: 30.8657
L1D PREFETCH  REQUESTED:    7429763  ISSUED:    7384763  USEFUL:     208864  USELESS:    1334340
L1D USEFUL LOAD PREFETCHES:     208864 PREFETCH ISSUED TO LOWER LEVEL:    1737105  ACCURACY: 12.0237
L1D TIMELY PREFETCHES:     208864 LATE PREFETCHES: 193454 DROPPED PREFETCHES: 0
L1D PREFETCHES SAME FILL-ORIGIN LEVEL: 1737105 DIFFERENT FILL-ORIGIN LEVEL: 0
L1D AVERAGE MISS LATENCY: 1.00686e+07 cycles
L1D RQ	ACCESS:   16984597	FORWARD:          0	MERGED:    1589052	TO_CACHE:   14289695
L1D WQ	ACCESS:    5114926	FORWARD:    1108219	MERGED:      26259	TO_CACHE:    5088667
L1D PQ	ACCESS:    3693657	FORWARD:          0	MERGED:        182	TO_CACHE:    3691106

L1D UNIQUE REGIONS ACCESSED: 0
L1D REGIONS CONFLICTS: 0
L1D Cross Page Prefetch Requests: 0
L1D Same Page Prefetch Requests: 4367830
L1D ROI Sum of L1D PQ occupancy: 93750776
L1D PREFETCHES PUSHED FROM L2C: 0
L1I TOTAL     ACCESS:    9152185  HIT:    9152185  MISS:          0  HIT %:        100  MISS %:          0   MPKI: 0
L1I LOAD      ACCESS:    9152185  HIT:    9152185  MISS:          0  HIT %:        100  MISS %:          0   MPKI: 0
L1I PREFETCH  REQUESTED:          0  ISSUED:          0  USEFUL:          0  USELESS:          0
L1I USEFUL LOAD PREFETCHES:          0 PREFETCH ISSUED TO LOWER LEVEL:          0  ACCURACY: -nan
L1I TIMELY PREFETCHES:          0 LATE PREFETCHES: 0 DROPPED PREFETCHES: 0
L1I PREFETCHES SAME FILL-ORIGIN LEVEL: 0 DIFFERENT FILL-ORIGIN LEVEL: 0
L1I AVERAGE MISS LATENCY: -nan cycles
L1I RQ	ACCESS:   14774604	FORWARD:          0	MERGED:    5622421	TO_CACHE:    9152183

BTB TOTAL     ACCESS:   11195514  HIT:   10468271  MISS:     727243  HIT %:    93.5042  MISS %:    6.49584   MPKI: 14.5449
BTB BRANCH_DIRECT_JUMP	ACCESS:    1118881  HIT:    1118860  MISS:         21
BTB BRANCH_INDIRECT	ACCESS:          0  HIT:          0  MISS:          0
BTB BRANCH_CONDITIONAL	ACCESS:    6895963  HIT:    6895921  MISS:         42
BTB BRANCH_DIRECT_CALL	ACCESS:    1540838  HIT:    1540825  MISS:         13
BTB BRANCH_INDIRECT_CALL	ACCESS:      49500  HIT:      49492  MISS:          8
BTB BRANCH_RETURN	ACCESS:    1590332  HIT:     863173  MISS:     727159
BTB BRANCH_OTHER ACCESS:          0  HIT:          0  MISS:          0

L2C TOTAL     ACCESS:    4268844  HIT:    1838006  MISS:    2430838  HIT %:    43.0563  MISS %:    56.9437   MPKI: 48.6168
L2C LOAD      ACCESS:    1484203  HIT:     452085  MISS:    1032118  HIT %:    30.4598  MISS %:    69.5402   MPKI: 20.6424
L2C DATA LOAD MPKI: 20.6424
L2C INSTRUCTION LOAD MPKI: 0
L2C RFO       ACCESS:      13530  HIT:      11783  MISS:       1747  HIT %:     87.088  MISS %:     12.912   MPKI: 0.03494
L2C PREFETCH  ACCESS:    2020041  HIT:     752966  MISS:    1267075  HIT %:    37.2748  MISS %:    62.7252   MPKI: 25.3415
L2C DATA PREFETCH MPKI: 25.3415
L2C INSTRUCTION PREFETCH MPKI: 0
L2C WRITEBACK ACCESS:     142208  HIT:     141920  MISS:        288  HIT %:    99.7975  MISS %:    0.20252   MPKI: 0.00576
L2C LOAD TRANSLATION ACCESS:     608714  HIT:     479194  MISS:     129520  HIT %:    78.7224  MISS %:    21.2776   MPKI: 2.5904
L2C TRANSLATION FROM L1D PREFETCHER ACCESS:        148  HIT:         58  MISS:         90  HIT %:    39.1892  MISS %:    60.8108   MPKI: 0.0018
L2C PREFETCH  REQUESTED:     305810  ISSUED:     305797  USEFUL:      24010  USELESS:    1243542
L2C USEFUL LOAD PREFETCHES:      24010 PREFETCH ISSUED TO LOWER LEVEL:    1267080  ACCURACY: 1.89491
L2C TIMELY PREFETCHES:      24010 LATE PREFETCHES: 5 DROPPED PREFETCHES: 0
L2C PREFETCHES SAME FILL-ORIGIN LEVEL: 76937 DIFFERENT FILL-ORIGIN LEVEL: 0
L2C AVERAGE MISS LATENCY: 465.915 cycles
L2C RQ	ACCESS:    2106597	FORWARD:          0	MERGED:          0	TO_CACHE:    2106595
L2C WQ	ACCESS:     142208	FORWARD:          6	MERGED:          0	TO_CACHE:     142208
L2C PQ	ACCESS:    2042792	FORWARD:          0	MERGED:      22628	TO_CACHE:    2020160

L2C Instructions Evicting Data 0
L2C Translations Evicting Data 121652
L2C Data Evicting Data 2179807
L2C Instructions Evicting Instructions 0
L2C Translations Evicting Instructions 0
L2C Data Evicting Instructions 0
L2C Instructions Evicting Translations 0
L2C Translations Evicting Translations 7958
L2C Data Evicting Translations 121133
L2C Dense regions hint from L2: 0
PSCL5 TOTAL     ACCESS:     372359  HIT:     372359  MISS:          0  HIT %:        100  MISS %:          0   MPKI: 0
PSCL5 LOAD TRANSLATION ACCESS:     372264  HIT:     372264  MISS:          0  HIT %:        100  MISS %:          0   MPKI: 0
PSCL5 TRANSLATION FROM L1D PREFETCHER ACCESS:         95  HIT:         95  MISS:          0  HIT %:        100  MISS %:          0   MPKI: 0
PSCL5 PREFETCH  REQUESTED:          0  ISSUED:          0  USEFUL:          0  USELESS:          0
PSCL5 USEFUL LOAD PREFETCHES:          0 PREFETCH ISSUED TO LOWER LEVEL:          0  ACCURACY: -nan
PSCL5 TIMELY PREFETCHES:          0 LATE PREFETCHES: 0 DROPPED PREFETCHES: 0
PSCL5 PREFETCHES SAME FILL-ORIGIN LEVEL: 0 DIFFERENT FILL-ORIGIN LEVEL: 0

PSCL4 TOTAL     ACCESS:     372359  HIT:     372359  MISS:          0  HIT %:        100  MISS %:          0   MPKI: 0
PSCL4 LOAD TRANSLATION ACCESS:     372264  HIT:     372264  MISS:          0  HIT %:        100  MISS %:          0   MPKI: 0
PSCL4 TRANSLATION FROM L1D PREFETCHER ACCESS:         95  HIT:         95  MISS:          0  HIT %:        100  MISS %:          0   MPKI: 0
PSCL4 PREFETCH  REQUESTED:          0  ISSUED:          0  USEFUL:          0  USELESS:          0
PSCL4 USEFUL LOAD PREFETCHES:          0 PREFETCH ISSUED TO LOWER LEVEL:          0  ACCURACY: -nan
PSCL4 TIMELY PREFETCHES:          0 LATE PREFETCHES: 0 DROPPED PREFETCHES: 0
PSCL4 PREFETCHES SAME FILL-ORIGIN LEVEL: 0 DIFFERENT FILL-ORIGIN LEVEL: 0

PSCL3 TOTAL     ACCESS:     372359  HIT:     372359  MISS:          0  HIT %:        100  MISS %:          0   MPKI: 0
PSCL3 LOAD TRANSLATION ACCESS:     372264  HIT:     372264  MISS:          0  HIT %:        100  MISS %:          0   MPKI: 0
PSCL3 TRANSLATION FROM L1D PREFETCHER ACCESS:         95  HIT:         95  MISS:          0  HIT %:        100  MISS %:          0   MPKI: 0
PSCL3 PREFETCH  REQUESTED:          0  ISSUED:          0  USEFUL:          0  USELESS:          0
PSCL3 USEFUL LOAD PREFETCHES:          0 PREFETCH ISSUED TO LOWER LEVEL:          0  ACCURACY: -nan
PSCL3 TIMELY PREFETCHES:          0 LATE PREFETCHES: 0 DROPPED PREFETCHES: 0
PSCL3 PREFETCHES SAME FILL-ORIGIN LEVEL: 0 DIFFERENT FILL-ORIGIN LEVEL: 0

PSCL2 TOTAL     ACCESS:     372359  HIT:     135346  MISS:     237013  HIT %:    36.3483  MISS %:    63.6517   MPKI: 4.74026
PSCL2 LOAD TRANSLATION ACCESS:     372317  HIT:     135304  MISS:     237013  HIT %:    36.3411  MISS %:    63.6589   MPKI: 4.74026
PSCL2 TRANSLATION FROM L1D PREFETCHER ACCESS:         42  HIT:         42  MISS:          0  HIT %:        100  MISS %:          0   MPKI: 0
PSCL2 PREFETCH  REQUESTED:          0  ISSUED:          0  USEFUL:          0  USELESS:          0
PSCL2 USEFUL LOAD PREFETCHES:          0 PREFETCH ISSUED TO LOWER LEVEL:          0  ACCURACY: -nan
PSCL2 TIMELY PREFETCHES:          0 LATE PREFETCHES: 0 DROPPED PREFETCHES: 0
PSCL2 PREFETCHES SAME FILL-ORIGIN LEVEL: 0 DIFFERENT FILL-ORIGIN LEVEL: 0

LLC TOTAL     ACCESS:    2523061  HIT:     638700  MISS:    1884361  HIT %:    25.3145  MISS %:    74.6855   MPKI: 37.6872
LLC LOAD      ACCESS:    1032117  HIT:     273469  MISS:     758648  HIT %:    26.4959  MISS %:    73.5041   MPKI: 15.173
LLC RFO       ACCESS:       1743  HIT:       1214  MISS:        529  HIT %:      69.65  MISS %:      30.35   MPKI: 0.01058
LLC PREFETCH  ACCESS:    1267079  HIT:     242352  MISS:    1024727  HIT %:    19.1268  MISS %:    80.8732   MPKI: 20.4945
LLC WRITEBACK ACCESS:      92512  HIT:      92302  MISS:        210  HIT %:     99.773  MISS %:   0.226998   MPKI: 0.0042
LLC LOAD TRANSLATION ACCESS:     129520  HIT:      29311  MISS:     100209  HIT %:    22.6305  MISS %:    77.3695   MPKI: 2.00418
LLC TRANSLATION FROM L1D PREFETCHER ACCESS:         90  HIT:         52  MISS:         38  HIT %:    57.7778  MISS %:    42.2222   MPKI: 0.00076
LLC PREFETCH  REQUESTED:          0  ISSUED:          0  USEFUL:      16774  USELESS:    1008370
LLC USEFUL LOAD PREFETCHES:      16774 PREFETCH ISSUED TO LOWER LEVEL:    1024727  ACCURACY: 1.63692
LLC TIMELY PREFETCHES:      16774 LATE PREFETCHES: 0 DROPPED PREFETCHES: 0
LLC PREFETCHES SAME FILL-ORIGIN LEVEL: 0 DIFFERENT FILL-ORIGIN LEVEL: 0
LLC AVERAGE MISS LATENCY: 560.894 cycles
LLC RQ	ACCESS:    1163470	FORWARD:          0	MERGED:          0	TO_CACHE:    1163470
LLC WQ	ACCESS:      92512	FORWARD:          1	MERGED:          0	TO_CACHE:      92512
LLC PQ	ACCESS:    1267080	FORWARD:          0	MERGED:          0	TO_CACHE:    1267079

LLC Dense regions hint to LLC: 0

RAW hits: 431388
Loads Generated: 17415986
Loads sent to L1D: 16984597
Stores Generated: 5114922
Stores sent to L1D: 5114926
Major fault: 0 Minor fault: 119985
Allocated PAGES: 119985

stream: 
stream:times selected: 5446142
stream:pref_filled: 1246512
stream:pref_useful: 138762
stream:pref_late: 171324
stream:misses: 481334
stream:misses_by_poll: 0

CS: 
CS:times selected: 277334
CS:pref_filled: 123157
CS:pref_useful: 118335
CS:pref_late: 19
CS:misses: 805
CS:misses_by_poll: 70

CPLX: 
CPLX:times selected: 5123561
CPLX:pref_filled: 420404
CPLX:pref_useful: 23232
CPLX:pref_late: 1741
CPLX:misses: 1440558
CPLX:misses_by_poll: 2462

NL_L1: 
NL:times selected: 54439
NL:pref_filled: 16553
NL:pref_useful: 2960
NL:pref_late: 2272
NL:misses: 19761
NL:misses_by_poll: 3

total selections: 10901476
total_filled: 1543283
total_useful: 208864
total_late: 196889
total_polluted: 2535
total_misses_after_warmup: 1704163
conflicts: 49556
Degree Incremented Times: 67354
Degree Decremented Times: 182696

L1 IP Table Write Accesses: 14188140
L1 IP Table Read Accesses: 14138584
L1 RST Write Accesses: 4552084
L1 RST Read Accesses: 9104168
L1 CSPT Write Accesses: 4552084
L1 CSPT Read Accesses: 8831315
L1 RR Filter Tag Write Accesses: 3738657
L1 RR Filter Tag Read Accesses: 158356812
L1 IP Table Tag Write Accesses: 14289693
L1 IP Table Tag Read Accesses: 14289693
L1 RST Tag Write Accesses: 0
L1 RST Tag Read Accesses: 42811574
L1 RR Filter Write Accesses: 0
L1 RR Filter Read Accesses: 5787389
test: 3172935
L2 IP Table Read Accesses: 6437623
L2 IP Table Write Accesses: 4953629
L2 IP Table Tag Read Accesses: 3219084
L2 IP Table Tag Write Accesses: 3219084

DRAM Statistics
 CHANNEL 0
 RQ ROW_BUFFER_HIT:     128489  ROW_BUFFER_MISS:    1755492
 DBUS_CONGESTED:    1865574
 WQ ROW_BUFFER_HIT:      38102  ROW_BUFFER_MISS:      31289  FULL:          0

 AVG_CONGESTED_CYCLE: 134
 All warmup complete: 2
Channel 0 Bank busy for read cycles: 0
Channel 0 Bank busy for write cycles: 0
Channel 0
Rank 0
0banks busy for read cycles: 34836323
0banks busy for write cycles: 6444
1banks busy for read cycles: 86296841
1banks busy for write cycles: 2247829
2banks busy for read cycles: 82602807
2banks busy for write cycles: 985545
3banks busy for read cycles: 57265196
3banks busy for write cycles: 693564
4banks busy for read cycles: 33867656
4banks busy for write cycles: 595477
5banks busy for read cycles: 20024295
5banks busy for write cycles: 601026
6banks busy for read cycles: 12872100
6banks busy for write cycles: 738334
7banks busy for read cycles: 7046056
7banks busy for write cycles: 3480029
8banks busy for read cycles: 2232602
8banks busy for write cycles: 24768957

CPU 0 Branch Prediction Accuracy: 92.7543% MPKI: 18.162 Average ROB Occupancy at Mispredict: 16.9917
Branch types
NOT_BRANCH: 37466601 74.9332%
BRANCH_DIRECT_JUMP: 1118881 2.23776%
BRANCH_INDIRECT: 0 0%
BRANCH_CONDITIONAL: 8233493 16.467%
BRANCH_DIRECT_CALL: 1540838 3.08168%
BRANCH_INDIRECT_CALL: 49500 0.099%
BRANCH_RETURN: 1590332 3.18066%
BRANCH_OTHER: 0 0%

@sumon_overall_L1D    208864    193454   1334340   1543283   7384763   7429763
@Sumon_Early_by_class_L1D     82828    103154     20971      2218
@Sumon_Late_by_class_L1D    168118        17      1707      2218

@Sumon_Early_by_cycle_L1D     39375     13714      5855      3746      3141     15605     23027     18731     40858     37877      4811      2124
@Sumon_Late_by_cycle_L1D    112015     27970     23073     16431      7758      6168        39         0         0         0         0         0
@Sumon_Early_stream_L1D     38228     12856      5170      3029      2286      6666      4491      4221      3290      1869       546       176
@Sumon_Early_CS_L1D        70       298       194       308       446      7268     16728     11560     33816     31380       993        93
@Sumon_Early_CPLX_L1D       489       406       401       333       356      1413      1649      2574      3630      4602      3264      1854
@Sumon_Late_stream_L1D     88298     27819     22463     15944      7546      6012        36         0         0         0         0         0
@Sumon_Late_CS_L1D        10         3         3         1         0         0         0         0         0         0         0         0
@Sumon_Late_CPLX_L1D       924        62       255       264       110        90         2         0         0         0         0         0
@sumon_overall_L2C     24010         5   1243542   1267165    305797    305810
@Sumon_Early_by_class_L2C     18432      3162      1962         0
@Sumon_Late_by_class_L2C         0         4         0         0

@Sumon_Early_by_cycle_L2C         1         5         1         1         2        12        19        13        92      1080      2231     20553
@Sumon_Late_by_cycle_L2C         2         1         0         0         0         2         0         0         0         0         0         0
@Sumon_Early_stream_L2C         1         1         1         0         0         0         0         0        40       767      1810     15812
@Sumon_Early_CS_L2C         0         4         0         1         2        12        17        11        36       130       160      2789
@Sumon_Early_CPLX_L2C         0         0         0         0         0         0         0         2        15       151       202      1592
@Sumon_Late_stream_L2C         0         0         0         0         0         0         0         0         0         0         0         0
@Sumon_Late_CS_L2C         2         0         0         0         0         2         0         0         0         0         0         0
@Sumon_Late_CPLX_L2C         0         0         0         0         0         0         0         0         0         0         0         0
DRAM PAGES: 1048576
Allocated PAGES: 119985
