
*** ChampSim Multicore Out-of-Order Simulator ***

Warmup Instructions: 10000000
Simulation Instructions: 50000000
Number of CPUs: 1
LLC sets: 2048
LLC ways: 16
Off-chip DRAM Size: 4096 MB Channels: 1 Width: 64-bit Data Rate: 200 MT/s
CPU 0 runs traces/SPEC2017/605.mcf_s-1152B.champsimtrace.xz
.xz
CPU 0 Bimodal branch predictor
BTB has LRU replacement policy
ITLB has LRU replacement policy
DTLB has LRU replacement policy
STLB has LRU replacement policy
L1I has LRU replacement policy
IP Table Entries: 256
L1D has LRU replacement policy
IP_Table L2 entries: 256
L2C has LRU replacement policy
LLC has LRU replacement policy
Heartbeat CPU 0 instructions: 10000001 cycles: 3346647 heartbeat IPC: 2.98807 cumulative IPC: 2.98807 (Simulation time: 0 hr 14 min 0 sec) 

Warmup complete CPU 0 instructions: 10000001 cycles: 3346647 (Simulation time: 0 hr 14 min 0 sec) 

Heartbeat CPU 0 instructions: 20000003 cycles: 72335605 heartbeat IPC: 0.144951 cumulative IPC: 0.144951 (Simulation time: 0 hr 29 min 52 sec) 
Heartbeat CPU 0 instructions: 30000000 cycles: 140356462 heartbeat IPC: 0.147014 cumulative IPC: 0.145975 (Simulation time: 0 hr 45 min 45 sec) 
Heartbeat CPU 0 instructions: 40000003 cycles: 208570338 heartbeat IPC: 0.146598 cumulative IPC: 0.146182 (Simulation time: 1 hr 0 min 58 sec) 
Heartbeat CPU 0 instructions: 50000001 cycles: 277703634 heartbeat IPC: 0.144648 cumulative IPC: 0.145795 (Simulation time: 1 hr 14 min 2 sec) 
Heartbeat CPU 0 instructions: 60000001 cycles: 346475624 heartbeat IPC: 0.145408 cumulative IPC: 0.145718 (Simulation time: 1 hr 24 min 18 sec) 
Finished CPU 0 instructions: 50000000 cycles: 343128977 cumulative IPC: 0.145718 (Simulation time: 1 hr 24 min 18 sec) 

ChampSim completed all CPUs

Region of Interest Statistics

CPU 0 cumulative IPC: 0.145718 instructions: 50000000 cycles: 343128977
ITLB TOTAL     ACCESS:    8907130  HIT:    8907130  MISS:          0  HIT %:        100  MISS %:          0   MPKI: 0
ITLB LOAD TRANSLATION ACCESS:    8907130  HIT:    8907130  MISS:          0  HIT %:        100  MISS %:          0   MPKI: 0
ITLB PREFETCH  REQUESTED:          0  ISSUED:          0  USEFUL:          0  USELESS:          0
ITLB USEFUL LOAD PREFETCHES:          0 PREFETCH ISSUED TO LOWER LEVEL:          0  ACCURACY: -nan
ITLB TIMELY PREFETCHES:          0 LATE PREFETCHES: 0 DROPPED PREFETCHES: 0
ITLB PREFETCHES SAME FILL-ORIGIN LEVEL: 0 DIFFERENT FILL-ORIGIN LEVEL: 0
ITLB AVERAGE MISS LATENCY: -nan cycles
ITLB RQ	ACCESS:    9324607	FORWARD:          0	MERGED:     417477	TO_CACHE:    8907130

DTLB TOTAL     ACCESS:   14849466  HIT:   13554479  MISS:    1294987  HIT %:    91.2792  MISS %:    8.72076   MPKI: 25.8997
DTLB LOAD TRANSLATION ACCESS:   14849466  HIT:   13554479  MISS:    1294987  HIT %:    91.2792  MISS %:    8.72076   MPKI: 25.8997
DTLB PREFETCH  REQUESTED:          0  ISSUED:          0  USEFUL:          0  USELESS:          0
DTLB USEFUL LOAD PREFETCHES:          0 PREFETCH ISSUED TO LOWER LEVEL:          0  ACCURACY: -nan
DTLB TIMELY PREFETCHES:          0 LATE PREFETCHES: 0 DROPPED PREFETCHES: 0
DTLB PREFETCHES SAME FILL-ORIGIN LEVEL: 0 DIFFERENT FILL-ORIGIN LEVEL: 0
DTLB AVERAGE MISS LATENCY: 12.3756 cycles
DTLB RQ	ACCESS:   18153000	FORWARD:          0	MERGED:    3199833	TO_CACHE:   14953167

STLB TOTAL     ACCESS:    5026943  HIT:    5010471  MISS:      16472  HIT %:    99.6723  MISS %:   0.327674   MPKI: 0.32944
STLB LOAD TRANSLATION ACCESS:    1294987  HIT:    1278515  MISS:      16472  HIT %:     98.728  MISS %:    1.27198   MPKI: 0.32944
STLB TRANSLATION FROM L1D PREFETCHER ACCESS:    3731956  HIT:    3731956  MISS:          0  HIT %:        100  MISS %:          0   MPKI: 0
STLB PREFETCH  REQUESTED:          0  ISSUED:          0  USEFUL:          0  USELESS:          0
STLB USEFUL LOAD PREFETCHES:          0 PREFETCH ISSUED TO LOWER LEVEL:          0  ACCURACY: -nan
STLB TIMELY PREFETCHES:          0 LATE PREFETCHES: 0 DROPPED PREFETCHES: 0
STLB PREFETCHES SAME FILL-ORIGIN LEVEL: 0 DIFFERENT FILL-ORIGIN LEVEL: 0
STLB AVERAGE MISS LATENCY: 250.27 cycles
STLB RQ	ACCESS:    5692956	FORWARD:          0	MERGED:     666012	TO_CACHE:    5026944

STLB Hit, L1D data hit: 0
STLB Hit, L2C data hit: 0
STLB Hit, LLC data hit: 0
STLB Hit, LLC data miss: 0
STLB STLB hints to L2: 0
L1D TOTAL     ACCESS:   21920987  HIT:   17348503  MISS:    4572484  HIT %:    79.1411  MISS %:    20.8589   MPKI: 91.4497
L1D LOAD      ACCESS:   12946039  HIT:   10944745  MISS:    2001294  HIT %:    84.5413  MISS %:    15.4587   MPKI: 40.0259
L1D RFO       ACCESS:    4863692  HIT:    4686106  MISS:     177586  HIT %:    96.3487  MISS %:    3.65126   MPKI: 3.55172
L1D PREFETCH  ACCESS:    4111256  HIT:    1717652  MISS:    2393604  HIT %:    41.7793  MISS %:    58.2207   MPKI: 47.8721
L1D PREFETCH  REQUESTED:    8805905  ISSUED:    8800039  USEFUL:     586594  USELESS:    1807036
L1D USEFUL LOAD PREFETCHES:     586594 PREFETCH ISSUED TO LOWER LEVEL:    2592467  ACCURACY: 22.6269
L1D TIMELY PREFETCHES:     586594 LATE PREFETCHES: 198028 DROPPED PREFETCHES: 0
L1D PREFETCHES SAME FILL-ORIGIN LEVEL: 2592467 DIFFERENT FILL-ORIGIN LEVEL: 0
L1D AVERAGE MISS LATENCY: 7.61783e+06 cycles
L1D RQ	ACCESS:   17083539	FORWARD:          0	MERGED:    3602541	TO_CACHE:   12991086
L1D WQ	ACCESS:    5189939	FORWARD:     494008	MERGED:      28025	TO_CACHE:    5161914
L1D PQ	ACCESS:    4402070	FORWARD:          0	MERGED:          5	TO_CACHE:    4397969

L1D UNIQUE REGIONS ACCESSED: 0
L1D REGIONS CONFLICTS: 0
L1D Cross Page Prefetch Requests: 0
L1D Same Page Prefetch Requests: 5260955
L1D ROI Sum of L1D PQ occupancy: 63321764
L1D PREFETCHES PUSHED FROM L2C: 0
L1I TOTAL     ACCESS:    9324607  HIT:    9324607  MISS:          0  HIT %:        100  MISS %:          0   MPKI: 0
L1I LOAD      ACCESS:    9324607  HIT:    9324607  MISS:          0  HIT %:        100  MISS %:          0   MPKI: 0
L1I PREFETCH  REQUESTED:          0  ISSUED:          0  USEFUL:          0  USELESS:          0
L1I USEFUL LOAD PREFETCHES:          0 PREFETCH ISSUED TO LOWER LEVEL:          0  ACCURACY: -nan
L1I TIMELY PREFETCHES:          0 LATE PREFETCHES: 0 DROPPED PREFETCHES: 0
L1I PREFETCHES SAME FILL-ORIGIN LEVEL: 0 DIFFERENT FILL-ORIGIN LEVEL: 0
L1I AVERAGE MISS LATENCY: -nan cycles
L1I RQ	ACCESS:   14453325	FORWARD:          0	MERGED:    5128718	TO_CACHE:    9324607

BTB TOTAL     ACCESS:   11600278  HIT:   11097954  MISS:     502324  HIT %:    95.6697  MISS %:    4.33028   MPKI: 10.0465
BTB BRANCH_DIRECT_JUMP	ACCESS:    1321999  HIT:    1321963  MISS:         36
BTB BRANCH_INDIRECT	ACCESS:          0  HIT:          0  MISS:          0
BTB BRANCH_CONDITIONAL	ACCESS:    7949724  HIT:    7949650  MISS:         74
BTB BRANCH_DIRECT_CALL	ACCESS:    1094376  HIT:    1094358  MISS:         18
BTB BRANCH_INDIRECT_CALL	ACCESS:      69902  HIT:      69894  MISS:          8
BTB BRANCH_RETURN	ACCESS:    1164277  HIT:     662089  MISS:     502188
BTB BRANCH_OTHER ACCESS:          0  HIT:          0  MISS:          0

L2C TOTAL     ACCESS:    5272775  HIT:    1785743  MISS:    3487032  HIT %:    33.8672  MISS %:    66.1328   MPKI: 69.7406
L2C LOAD      ACCESS:    1803250  HIT:     487927  MISS:    1315323  HIT %:    27.0582  MISS %:    72.9418   MPKI: 26.3065
L2C DATA LOAD MPKI: 26.3065
L2C INSTRUCTION LOAD MPKI: 0
L2C RFO       ACCESS:     177409  HIT:      78577  MISS:      98832  HIT %:    44.2914  MISS %:    55.7086   MPKI: 1.97664
L2C PREFETCH  ACCESS:    3005563  HIT:     939192  MISS:    2066371  HIT %:    31.2485  MISS %:    68.7515   MPKI: 41.3274
L2C DATA PREFETCH MPKI: 41.3274
L2C INSTRUCTION PREFETCH MPKI: 0
L2C WRITEBACK ACCESS:     270032  HIT:     269719  MISS:        313  HIT %:    99.8841  MISS %:   0.115912   MPKI: 0.00626
L2C LOAD TRANSLATION ACCESS:      16521  HIT:      10328  MISS:       6193  HIT %:    62.5144  MISS %:    37.4856   MPKI: 0.12386
L2C PREFETCH  REQUESTED:    1157442  ISSUED:    1157378  USEFUL:     110033  USELESS:    1956082
L2C USEFUL LOAD PREFETCHES:     110033 PREFETCH ISSUED TO LOWER LEVEL:    2074635  ACCURACY: 5.30373
L2C TIMELY PREFETCHES:     110033 LATE PREFETCHES: 8264 DROPPED PREFETCHES: 0
L2C PREFETCHES SAME FILL-ORIGIN LEVEL: 498434 DIFFERENT FILL-ORIGIN LEVEL: 0
L2C AVERAGE MISS LATENCY: 413.144 cycles
L2C RQ	ACCESS:    1997197	FORWARD:          0	MERGED:          0	TO_CACHE:    1997180
L2C WQ	ACCESS:     270032	FORWARD:         21	MERGED:          0	TO_CACHE:     270032
L2C PQ	ACCESS:    3749186	FORWARD:          0	MERGED:     315029	TO_CACHE:    3434153

L2C Instructions Evicting Data 0
L2C Translations Evicting Data 6175
L2C Data Evicting Data 3474352
L2C Instructions Evicting Instructions 0
L2C Translations Evicting Instructions 0
L2C Data Evicting Instructions 0
L2C Instructions Evicting Translations 0
L2C Translations Evicting Translations 18
L2C Data Evicting Translations 6174
L2C Dense regions hint from L2: 0
PSCL5 TOTAL     ACCESS:      16472  HIT:      16472  MISS:          0  HIT %:        100  MISS %:          0   MPKI: 0
PSCL5 LOAD TRANSLATION ACCESS:      16472  HIT:      16472  MISS:          0  HIT %:        100  MISS %:          0   MPKI: 0
PSCL5 PREFETCH  REQUESTED:          0  ISSUED:          0  USEFUL:          0  USELESS:          0
PSCL5 USEFUL LOAD PREFETCHES:          0 PREFETCH ISSUED TO LOWER LEVEL:          0  ACCURACY: -nan
PSCL5 TIMELY PREFETCHES:          0 LATE PREFETCHES: 0 DROPPED PREFETCHES: 0
PSCL5 PREFETCHES SAME FILL-ORIGIN LEVEL: 0 DIFFERENT FILL-ORIGIN LEVEL: 0

PSCL4 TOTAL     ACCESS:      16472  HIT:      16472  MISS:          0  HIT %:        100  MISS %:          0   MPKI: 0
PSCL4 LOAD TRANSLATION ACCESS:      16472  HIT:      16472  MISS:          0  HIT %:        100  MISS %:          0   MPKI: 0
PSCL4 PREFETCH  REQUESTED:          0  ISSUED:          0  USEFUL:          0  USELESS:          0
PSCL4 USEFUL LOAD PREFETCHES:          0 PREFETCH ISSUED TO LOWER LEVEL:          0  ACCURACY: -nan
PSCL4 TIMELY PREFETCHES:          0 LATE PREFETCHES: 0 DROPPED PREFETCHES: 0
PSCL4 PREFETCHES SAME FILL-ORIGIN LEVEL: 0 DIFFERENT FILL-ORIGIN LEVEL: 0

PSCL3 TOTAL     ACCESS:      16472  HIT:      16472  MISS:          0  HIT %:        100  MISS %:          0   MPKI: 0
PSCL3 LOAD TRANSLATION ACCESS:      16472  HIT:      16472  MISS:          0  HIT %:        100  MISS %:          0   MPKI: 0
PSCL3 PREFETCH  REQUESTED:          0  ISSUED:          0  USEFUL:          0  USELESS:          0
PSCL3 USEFUL LOAD PREFETCHES:          0 PREFETCH ISSUED TO LOWER LEVEL:          0  ACCURACY: -nan
PSCL3 TIMELY PREFETCHES:          0 LATE PREFETCHES: 0 DROPPED PREFETCHES: 0
PSCL3 PREFETCHES SAME FILL-ORIGIN LEVEL: 0 DIFFERENT FILL-ORIGIN LEVEL: 0

PSCL2 TOTAL     ACCESS:      16472  HIT:      16316  MISS:        156  HIT %:    99.0529  MISS %:   0.947062   MPKI: 0.00312
PSCL2 LOAD TRANSLATION ACCESS:      16472  HIT:      16316  MISS:        156  HIT %:    99.0529  MISS %:   0.947062   MPKI: 0.00312
PSCL2 PREFETCH  REQUESTED:          0  ISSUED:          0  USEFUL:          0  USELESS:          0
PSCL2 USEFUL LOAD PREFETCHES:          0 PREFETCH ISSUED TO LOWER LEVEL:          0  ACCURACY: -nan
PSCL2 TIMELY PREFETCHES:          0 LATE PREFETCHES: 0 DROPPED PREFETCHES: 0
PSCL2 PREFETCHES SAME FILL-ORIGIN LEVEL: 0 DIFFERENT FILL-ORIGIN LEVEL: 0

LLC TOTAL     ACCESS:    3673145  HIT:    2297025  MISS:    1376120  HIT %:    62.5356  MISS %:    37.4644   MPKI: 27.5224
LLC LOAD      ACCESS:    1307058  HIT:     988403  MISS:     318655  HIT %:    75.6204  MISS %:    24.3796   MPKI: 6.3731
LLC RFO       ACCESS:      98832  HIT:      97890  MISS:        942  HIT %:    99.0469  MISS %:   0.953133   MPKI: 0.01884
LLC PREFETCH  ACCESS:    2074635  HIT:    1021599  MISS:    1053036  HIT %:    49.2423  MISS %:    50.7577   MPKI: 21.0607
LLC WRITEBACK ACCESS:     186427  HIT:     186150  MISS:        277  HIT %:    99.8514  MISS %:   0.148584   MPKI: 0.00554
LLC LOAD TRANSLATION ACCESS:       6193  HIT:       2983  MISS:       3210  HIT %:    48.1673  MISS %:    51.8327   MPKI: 0.0642
LLC PREFETCH  REQUESTED:          0  ISSUED:          0  USEFUL:      87217  USELESS:     965518
LLC USEFUL LOAD PREFETCHES:      87217 PREFETCH ISSUED TO LOWER LEVEL:    1053036  ACCURACY: 8.28243
LLC TIMELY PREFETCHES:      87217 LATE PREFETCHES: 0 DROPPED PREFETCHES: 0
LLC PREFETCHES SAME FILL-ORIGIN LEVEL: 0 DIFFERENT FILL-ORIGIN LEVEL: 0
LLC AVERAGE MISS LATENCY: 973.268 cycles
LLC RQ	ACCESS:    1412084	FORWARD:          0	MERGED:          0	TO_CACHE:    1412083
LLC WQ	ACCESS:     186427	FORWARD:          1	MERGED:          0	TO_CACHE:     186427
LLC PQ	ACCESS:    2074635	FORWARD:          0	MERGED:          0	TO_CACHE:    2074635

LLC Dense regions hint to LLC: 0

RAW hits: 651994
Loads Generated: 17735533
Loads sent to L1D: 17083539
Stores Generated: 5189909
Stores sent to L1D: 5189939
Major fault: 0 Minor fault: 14980
Allocated PAGES: 14980

stream: 
stream:times selected: 7029710
stream:pref_filled: 1997280
stream:pref_useful: 100596
stream:pref_late: 2169
stream:misses: 475487
stream:misses_by_poll: 0

CS: 
CS:times selected: 1093892
CS:pref_filled: 593688
CS:pref_useful: 571578
CS:pref_late: 222878
CS:misses: 291051
CS:misses_by_poll: 1533

CPLX: 
CPLX:times selected: 5882226
CPLX:pref_filled: 249620
CPLX:pref_useful: 30042
CPLX:pref_late: 2263
CPLX:misses: 1665876
CPLX:misses_by_poll: 755

NL_L1: 
NL:times selected: 45211
NL:pref_filled: 15194
NL:pref_useful: 787
NL:pref_late: 196
NL:misses: 16095
NL:misses_by_poll: 1

total selections: 14051039
total_filled: 2393604
total_useful: 586594
total_late: 231693
total_polluted: 2289
total_misses_after_warmup: 2046341
conflicts: 83450
Degree Incremented Times: 58972
Degree Decremented Times: 181137

L1 IP Table Write Accesses: 12784746
L1 IP Table Read Accesses: 12701296
L1 RST Write Accesses: 5829431
L1 RST Read Accesses: 11658862
L1 CSPT Write Accesses: 5829431
L1 CSPT Read Accesses: 10724406
L1 RR Filter Tag Write Accesses: 4407936
L1 RR Filter Tag Read Accesses: 244601118
L1 IP Table Tag Write Accesses: 12991086
L1 IP Table Tag Read Accesses: 12991086
L1 RST Tag Write Accesses: 0
L1 RST Tag Read Accesses: 55544841
L1 RR Filter Write Accesses: 0
L1 RR Filter Read Accesses: 8841966
test: 3370237
L2 IP Table Read Accesses: 8091748
L2 IP Table Write Accesses: 6293761
L2 IP Table Tag Read Accesses: 4048735
L2 IP Table Tag Write Accesses: 4048735

DRAM Statistics
 CHANNEL 0
 RQ ROW_BUFFER_HIT:     329097  ROW_BUFFER_MISS:    1046684
 DBUS_CONGESTED:    1320342
 WQ ROW_BUFFER_HIT:        688  ROW_BUFFER_MISS:       7058  FULL:          0

 AVG_CONGESTED_CYCLE: 150
 All warmup complete: 2
Channel 0 Bank busy for read cycles: 0
Channel 0 Bank busy for write cycles: 0
Channel 0
Rank 0
0banks busy for read cycles: 123598660
0banks busy for write cycles: 4746
1banks busy for read cycles: 23823873
1banks busy for write cycles: 1799546
2banks busy for read cycles: 31454271
2banks busy for write cycles: 533048
3banks busy for read cycles: 34589330
3banks busy for write cycles: 227987
4banks busy for read cycles: 33377272
4banks busy for write cycles: 108742
5banks busy for read cycles: 29140424
5banks busy for write cycles: 55862
6banks busy for read cycles: 24914422
6banks busy for write cycles: 29260
7banks busy for read cycles: 20539738
7banks busy for write cycles: 28678
8banks busy for read cycles: 18764664
8banks busy for write cycles: 138455

CPU 0 Branch Prediction Accuracy: 90.105% MPKI: 24.6801 Average ROB Occupancy at Mispredict: 15.055
Branch types
NOT_BRANCH: 37528554 75.0571%
BRANCH_DIRECT_JUMP: 1321999 2.644%
BRANCH_INDIRECT: 0 0%
BRANCH_CONDITIONAL: 8820511 17.641%
BRANCH_DIRECT_CALL: 1094376 2.18875%
BRANCH_INDIRECT_CALL: 69902 0.139804%
BRANCH_RETURN: 1164277 2.32855%
BRANCH_OTHER: 0 0%

@sumon_overall_L1D    586594    198028   1807036   2393604   8800039   8805905
@Sumon_Early_by_class_L1D     84317    474334     27311       192
@Sumon_Late_by_class_L1D      1530    191666      2209       192

@Sumon_Early_by_cycle_L1D     73084     35195     57674     59982     70892    166348     25698     17934     18452     38400     15847      7088
@Sumon_Late_by_cycle_L1D     25428     34181     41606     29323     20557     44731      2197         5         0         0         0         0
@Sumon_Early_stream_L1D      6410      1594      1699      1231      1011      4558      4989      8920     14412     22661     10921      5911
@Sumon_Early_CS_L1D     66245     33092     54886     57381     68198    152957     18427      7537      1609     11050      2470       482
@Sumon_Early_CPLX_L1D       407       493      1078      1358      1672      8695      2231      1409      2327      4563      2408       670
@Sumon_Late_stream_L1D       841       271       122        92        69       122        13         0         0         0         0         0
@Sumon_Late_CS_L1D     21641     33457     40919     28914     20299     44275      2156         5         0         0         0         0
@Sumon_Late_CPLX_L1D       325       451       565       317       189       334        28         0         0         0         0         0
@sumon_overall_L2C    110033      8264   1956082   2066371   1157378   1157442
@Sumon_Early_by_class_L2C     58694     42820      7725         0
@Sumon_Late_by_class_L2C         0      8166         0         0

@Sumon_Early_by_cycle_L2C       500       493      2539      2049      1954      3887       259        42       193      2796      8206     87115
@Sumon_Late_by_cycle_L2C      1350      1839      2181      1149       549      1112        81         3         0         0         0         0
@Sumon_Early_stream_L2C         0         0         0         0         0         0         2        14       147      2385      6525     49621
@Sumon_Early_CS_L2C       453       472      2536      2048      1952      3876       250         7         9       105       633     30479
@Sumon_Early_CPLX_L2C         0         0         0         0         0         0         0         3        18       259       948      6497
@Sumon_Late_stream_L2C         0         0         0         0         0         0         0         0         0         0         0         0
@Sumon_Late_CS_L2C      1277      1815      2181      1148       549      1112        81         3         0         0         0         0
@Sumon_Late_CPLX_L2C         0         0         0         0         0         0         0         0         0         0         0         0
DRAM PAGES: 1048576
Allocated PAGES: 14980
