
*** ChampSim Multicore Out-of-Order Simulator ***

Warmup Instructions: 10000000
Simulation Instructions: 50000000
Number of CPUs: 1
LLC sets: 2048
LLC ways: 16
Off-chip DRAM Size: 4096 MB Channels: 1 Width: 64-bit Data Rate: 200 MT/s
CPU 0 runs traces/SPEC2017/649.fotonik3d_s-8225B.champsimtrace.xz
.xz
CPU 0 Bimodal branch predictor
BTB has LRU replacement policy
ITLB has LRU replacement policy
DTLB has LRU replacement policy
STLB has LRU replacement policy
L1I has LRU replacement policy
IP Table Entries: 256
L1D has LRU replacement policy
IP_Table L2 entries: 256
L2C has LRU replacement policy
LLC has LRU replacement policy
Heartbeat CPU 0 instructions: 10000001 cycles: 2903770 heartbeat IPC: 3.4438 cumulative IPC: 3.4438 (Simulation time: 0 hr 11 min 20 sec) 

Warmup complete CPU 0 instructions: 10000001 cycles: 2903770 (Simulation time: 0 hr 11 min 20 sec) 

Heartbeat CPU 0 instructions: 20000001 cycles: 31779416 heartbeat IPC: 0.346313 cumulative IPC: 0.346313 (Simulation time: 0 hr 26 min 2 sec) 
Heartbeat CPU 0 instructions: 30000002 cycles: 60535448 heartbeat IPC: 0.347753 cumulative IPC: 0.347031 (Simulation time: 0 hr 40 min 49 sec) 
Heartbeat CPU 0 instructions: 40000002 cycles: 89402814 heartbeat IPC: 0.346412 cumulative IPC: 0.346825 (Simulation time: 0 hr 55 min 26 sec) 
Heartbeat CPU 0 instructions: 50000003 cycles: 118172760 heartbeat IPC: 0.347585 cumulative IPC: 0.347014 (Simulation time: 1 hr 8 min 32 sec) 
Heartbeat CPU 0 instructions: 60000000 cycles: 147050081 heartbeat IPC: 0.346292 cumulative IPC: 0.34687 (Simulation time: 1 hr 18 min 58 sec) 
Finished CPU 0 instructions: 50000003 cycles: 144146312 cumulative IPC: 0.34687 (Simulation time: 1 hr 18 min 58 sec) 

ChampSim completed all CPUs

Region of Interest Statistics

CPU 0 cumulative IPC: 0.34687 instructions: 50000003 cycles: 144146312
ITLB TOTAL     ACCESS:    7069069  HIT:    7069069  MISS:          0  HIT %:        100  MISS %:          0   MPKI: 0
ITLB LOAD TRANSLATION ACCESS:    7069069  HIT:    7069069  MISS:          0  HIT %:        100  MISS %:          0   MPKI: 0
ITLB PREFETCH  REQUESTED:          0  ISSUED:          0  USEFUL:          0  USELESS:          0
ITLB USEFUL LOAD PREFETCHES:          0 PREFETCH ISSUED TO LOWER LEVEL:          0  ACCURACY: -nan
ITLB TIMELY PREFETCHES:          0 LATE PREFETCHES: 0 DROPPED PREFETCHES: 0
ITLB PREFETCHES SAME FILL-ORIGIN LEVEL: 0 DIFFERENT FILL-ORIGIN LEVEL: 0
ITLB AVERAGE MISS LATENCY: -nan cycles
ITLB RQ	ACCESS:    8829103	FORWARD:          0	MERGED:    1760034	TO_CACHE:    7069069

DTLB TOTAL     ACCESS:    7037917  HIT:    7026124  MISS:      11793  HIT %:    99.8324  MISS %:   0.167564   MPKI: 0.23586
DTLB LOAD TRANSLATION ACCESS:    7037917  HIT:    7026124  MISS:      11793  HIT %:    99.8324  MISS %:   0.167564   MPKI: 0.23586
DTLB PREFETCH  REQUESTED:          0  ISSUED:          0  USEFUL:          0  USELESS:          0
DTLB USEFUL LOAD PREFETCHES:          0 PREFETCH ISSUED TO LOWER LEVEL:          0  ACCURACY: -nan
DTLB TIMELY PREFETCHES:          0 LATE PREFETCHES: 0 DROPPED PREFETCHES: 0
DTLB PREFETCHES SAME FILL-ORIGIN LEVEL: 0 DIFFERENT FILL-ORIGIN LEVEL: 0
DTLB AVERAGE MISS LATENCY: 138.846 cycles
DTLB RQ	ACCESS:   10798034	FORWARD:          0	MERGED:    3759308	TO_CACHE:    7038726

STLB TOTAL     ACCESS:     609615  HIT:     602757  MISS:       6858  HIT %:     98.875  MISS %:    1.12497   MPKI: 0.13716
STLB LOAD TRANSLATION ACCESS:      11793  HIT:       4935  MISS:       6858  HIT %:    41.8469  MISS %:    58.1531   MPKI: 0.13716
STLB TRANSLATION FROM L1D PREFETCHER ACCESS:     597822  HIT:     597822  MISS:          0  HIT %:        100  MISS %:          0   MPKI: 0
STLB PREFETCH  REQUESTED:          0  ISSUED:          0  USEFUL:          0  USELESS:          0
STLB USEFUL LOAD PREFETCHES:          0 PREFETCH ISSUED TO LOWER LEVEL:          0  ACCURACY: -nan
STLB TIMELY PREFETCHES:          0 LATE PREFETCHES: 0 DROPPED PREFETCHES: 0
STLB PREFETCHES SAME FILL-ORIGIN LEVEL: 0 DIFFERENT FILL-ORIGIN LEVEL: 0
STLB AVERAGE MISS LATENCY: 223.187 cycles
STLB RQ	ACCESS:     672615	FORWARD:          0	MERGED:      63000	TO_CACHE:     609615

STLB Hit, L1D data hit: 0
STLB Hit, L2C data hit: 0
STLB Hit, LLC data hit: 0
STLB Hit, LLC data miss: 0
STLB STLB hints to L2: 0
L1D TOTAL     ACCESS:   10819503  HIT:   10154859  MISS:     664644  HIT %:     93.857  MISS %:    6.14302   MPKI: 13.2929
L1D LOAD      ACCESS:    6864938  HIT:    6633863  MISS:     231075  HIT %:     96.634  MISS %:    3.36602   MPKI: 4.6215
L1D RFO       ACCESS:    3508705  HIT:    3508044  MISS:        661  HIT %:    99.9812  MISS %:  0.0188389   MPKI: 0.01322
L1D PREFETCH  ACCESS:     445860  HIT:      12952  MISS:     432908  HIT %:    2.90495  MISS %:    97.0951   MPKI: 8.65816
L1D PREFETCH  REQUESTED:    1321644  ISSUED:    1321644  USEFUL:     429960  USELESS:       2954
L1D USEFUL LOAD PREFETCHES:     429960 PREFETCH ISSUED TO LOWER LEVEL:     646652  ACCURACY: 66.4902
L1D TIMELY PREFETCHES:     429960 LATE PREFETCHES: 213530 DROPPED PREFETCHES: 0
L1D PREFETCHES SAME FILL-ORIGIN LEVEL: 646652 DIFFERENT FILL-ORIGIN LEVEL: 0
L1D AVERAGE MISS LATENCY: 2.41151e+07 cycles
L1D RQ	ACCESS:   17541456	FORWARD:          0	MERGED:   10253622	TO_CACHE:    7287752
L1D WQ	ACCESS:    3510282	FORWARD:         82	MERGED:          0	TO_CACHE:    3510282
L1D PQ	ACCESS:     660822	FORWARD:          0	MERGED:          0	TO_CACHE:     660822

L1D UNIQUE REGIONS ACCESSED: 0
L1D REGIONS CONFLICTS: 0
L1D Cross Page Prefetch Requests: 0
L1D Same Page Prefetch Requests: 792253
L1D ROI Sum of L1D PQ occupancy: 8673533
L1D PREFETCHES PUSHED FROM L2C: 0
L1I TOTAL     ACCESS:    8829101  HIT:    8829101  MISS:          0  HIT %:        100  MISS %:          0   MPKI: 0
L1I LOAD      ACCESS:    8829101  HIT:    8829101  MISS:          0  HIT %:        100  MISS %:          0   MPKI: 0
L1I PREFETCH  REQUESTED:          0  ISSUED:          0  USEFUL:          0  USELESS:          0
L1I USEFUL LOAD PREFETCHES:          0 PREFETCH ISSUED TO LOWER LEVEL:          0  ACCURACY: -nan
L1I TIMELY PREFETCHES:          0 LATE PREFETCHES: 0 DROPPED PREFETCHES: 0
L1I PREFETCHES SAME FILL-ORIGIN LEVEL: 0 DIFFERENT FILL-ORIGIN LEVEL: 0
L1I AVERAGE MISS LATENCY: -nan cycles
L1I RQ	ACCESS:   11909990	FORWARD:          0	MERGED:    3080887	TO_CACHE:    8829103

BTB TOTAL     ACCESS:     877295  HIT:     877286  MISS:          9  HIT %:     99.999  MISS %: 0.00102588   MPKI: 0.00018
BTB BRANCH_DIRECT_JUMP	ACCESS:        220  HIT:        218  MISS:          2
BTB BRANCH_INDIRECT	ACCESS:          0  HIT:          0  MISS:          0
BTB BRANCH_CONDITIONAL	ACCESS:     876635  HIT:     876632  MISS:          3
BTB BRANCH_DIRECT_CALL	ACCESS:        220  HIT:        218  MISS:          2
BTB BRANCH_INDIRECT_CALL	ACCESS:          0  HIT:          0  MISS:          0
BTB BRANCH_RETURN	ACCESS:        220  HIT:        218  MISS:          2
BTB BRANCH_OTHER ACCESS:          0  HIT:          0  MISS:          0

L2C TOTAL     ACCESS:    2363269  HIT:    1913437  MISS:     449832  HIT %:    80.9657  MISS %:    19.0343   MPKI: 8.99664
L2C LOAD      ACCESS:      17546  HIT:       8361  MISS:       9185  HIT %:    47.6519  MISS %:    52.3481   MPKI: 0.1837
L2C DATA LOAD MPKI: 0.1837
L2C INSTRUCTION LOAD MPKI: 0
L2C RFO       ACCESS:        661  HIT:        468  MISS:        193  HIT %:    70.8018  MISS %:    29.1982   MPKI: 0.00386
L2C PREFETCH  ACCESS:    1898843  HIT:    1459270  MISS:     439573  HIT %:    76.8505  MISS %:    23.1495   MPKI: 8.79146
L2C DATA PREFETCH MPKI: 8.79146
L2C INSTRUCTION PREFETCH MPKI: 0
L2C WRITEBACK ACCESS:     439359  HIT:     439359  MISS:          0  HIT %:        100  MISS %:          0   MPKI: 0
L2C LOAD TRANSLATION ACCESS:       6860  HIT:       5979  MISS:        881  HIT %:    87.1574  MISS %:    12.8426   MPKI: 0.01762
L2C PREFETCH  REQUESTED:    1810185  ISSUED:    1810148  USEFUL:       1632  USELESS:     438179
L2C USEFUL LOAD PREFETCHES:       1632 PREFETCH ISSUED TO LOWER LEVEL:     440574  ACCURACY: 0.370426
L2C TIMELY PREFETCHES:       1632 LATE PREFETCHES: 993 DROPPED PREFETCHES: 0
L2C PREFETCHES SAME FILL-ORIGIN LEVEL: 351734 DIFFERENT FILL-ORIGIN LEVEL: 0
L2C AVERAGE MISS LATENCY: 2458.4 cycles
L2C RQ	ACCESS:      25067	FORWARD:          0	MERGED:          0	TO_CACHE:      25067
L2C WQ	ACCESS:     439359	FORWARD:          0	MERGED:          0	TO_CACHE:     439359
L2C PQ	ACCESS:    2456592	FORWARD:          0	MERGED:      85024	TO_CACHE:    2371568

L2C Instructions Evicting Data 0
L2C Translations Evicting Data 875
L2C Data Evicting Data 448075
L2C Instructions Evicting Instructions 0
L2C Translations Evicting Instructions 0
L2C Data Evicting Instructions 0
L2C Instructions Evicting Translations 0
L2C Translations Evicting Translations 6
L2C Data Evicting Translations 876
L2C Dense regions hint from L2: 0
PSCL5 TOTAL     ACCESS:       6858  HIT:       6858  MISS:          0  HIT %:        100  MISS %:          0   MPKI: 0
PSCL5 LOAD TRANSLATION ACCESS:       6858  HIT:       6858  MISS:          0  HIT %:        100  MISS %:          0   MPKI: 0
PSCL5 PREFETCH  REQUESTED:          0  ISSUED:          0  USEFUL:          0  USELESS:          0
PSCL5 USEFUL LOAD PREFETCHES:          0 PREFETCH ISSUED TO LOWER LEVEL:          0  ACCURACY: -nan
PSCL5 TIMELY PREFETCHES:          0 LATE PREFETCHES: 0 DROPPED PREFETCHES: 0
PSCL5 PREFETCHES SAME FILL-ORIGIN LEVEL: 0 DIFFERENT FILL-ORIGIN LEVEL: 0

PSCL4 TOTAL     ACCESS:       6858  HIT:       6858  MISS:          0  HIT %:        100  MISS %:          0   MPKI: 0
PSCL4 LOAD TRANSLATION ACCESS:       6858  HIT:       6858  MISS:          0  HIT %:        100  MISS %:          0   MPKI: 0
PSCL4 PREFETCH  REQUESTED:          0  ISSUED:          0  USEFUL:          0  USELESS:          0
PSCL4 USEFUL LOAD PREFETCHES:          0 PREFETCH ISSUED TO LOWER LEVEL:          0  ACCURACY: -nan
PSCL4 TIMELY PREFETCHES:          0 LATE PREFETCHES: 0 DROPPED PREFETCHES: 0
PSCL4 PREFETCHES SAME FILL-ORIGIN LEVEL: 0 DIFFERENT FILL-ORIGIN LEVEL: 0

PSCL3 TOTAL     ACCESS:       6858  HIT:       6857  MISS:          1  HIT %:    99.9854  MISS %:  0.0145815   MPKI: 2e-05
PSCL3 LOAD TRANSLATION ACCESS:       6858  HIT:       6857  MISS:          1  HIT %:    99.9854  MISS %:  0.0145815   MPKI: 2e-05
PSCL3 PREFETCH  REQUESTED:          0  ISSUED:          0  USEFUL:          0  USELESS:          0
PSCL3 USEFUL LOAD PREFETCHES:          0 PREFETCH ISSUED TO LOWER LEVEL:          0  ACCURACY: -nan
PSCL3 TIMELY PREFETCHES:          0 LATE PREFETCHES: 0 DROPPED PREFETCHES: 0
PSCL3 PREFETCHES SAME FILL-ORIGIN LEVEL: 0 DIFFERENT FILL-ORIGIN LEVEL: 0

PSCL2 TOTAL     ACCESS:       6858  HIT:       6837  MISS:         21  HIT %:    99.6938  MISS %:   0.306212   MPKI: 0.00042
PSCL2 LOAD TRANSLATION ACCESS:       6858  HIT:       6837  MISS:         21  HIT %:    99.6938  MISS %:   0.306212   MPKI: 0.00042
PSCL2 PREFETCH  REQUESTED:          0  ISSUED:          0  USEFUL:          0  USELESS:          0
PSCL2 USEFUL LOAD PREFETCHES:          0 PREFETCH ISSUED TO LOWER LEVEL:          0  ACCURACY: -nan
PSCL2 TIMELY PREFETCHES:          0 LATE PREFETCHES: 0 DROPPED PREFETCHES: 0
PSCL2 PREFETCHES SAME FILL-ORIGIN LEVEL: 0 DIFFERENT FILL-ORIGIN LEVEL: 0

LLC TOTAL     ACCESS:     888328  HIT:     445749  MISS:     442579  HIT %:    50.1784  MISS %:    49.8216   MPKI: 8.85158
LLC LOAD      ACCESS:       8192  HIT:        330  MISS:       7862  HIT %:    4.02832  MISS %:    95.9717   MPKI: 0.15724
LLC RFO       ACCESS:        193  HIT:        193  MISS:          0  HIT %:        100  MISS %:          0   MPKI: 0
LLC PREFETCH  ACCESS:     440566  HIT:       6730  MISS:     433836  HIT %:    1.52758  MISS %:    98.4724   MPKI: 8.67672
LLC WRITEBACK ACCESS:     438496  HIT:     438496  MISS:          0  HIT %:        100  MISS %:          0   MPKI: 0
LLC LOAD TRANSLATION ACCESS:        881  HIT:          0  MISS:        881  HIT %:          0  MISS %:        100   MPKI: 0.01762
LLC PREFETCH  REQUESTED:          0  ISSUED:          0  USEFUL:         30  USELESS:     433860
LLC USEFUL LOAD PREFETCHES:         30 PREFETCH ISSUED TO LOWER LEVEL:     433844  ACCURACY: 0.00691493
LLC TIMELY PREFETCHES:         30 LATE PREFETCHES: 0 DROPPED PREFETCHES: 0
LLC PREFETCHES SAME FILL-ORIGIN LEVEL: 0 DIFFERENT FILL-ORIGIN LEVEL: 0
LLC AVERAGE MISS LATENCY: 2471.11 cycles
LLC RQ	ACCESS:       9266	FORWARD:          0	MERGED:          0	TO_CACHE:       9266
LLC WQ	ACCESS:     438496	FORWARD:          0	MERGED:          0	TO_CACHE:     438496
LLC PQ	ACCESS:     440574	FORWARD:          0	MERGED:          0	TO_CACHE:     440574

LLC Dense regions hint to LLC: 0

RAW hits: 812
Loads Generated: 17542266
Loads sent to L1D: 17541456
Stores Generated: 3510282
Stores sent to L1D: 3510282
Major fault: 0 Minor fault: 8326
Allocated PAGES: 8326

stream: 
stream:times selected: 2037546
stream:pref_filled: 554317
stream:pref_useful: 551045
stream:pref_late: 213111
stream:misses: 699
stream:misses_by_poll: 0

CS: 
CS:times selected: 1802797
CS:pref_filled: 3780
CS:pref_useful: 3581
CS:pref_late: 29
CS:misses: 562757
CS:misses_by_poll: 3

CPLX: 
CPLX:times selected: 234660
CPLX:pref_filled: 4382
CPLX:pref_useful: 4304
CPLX:pref_late: 163
CPLX:misses: 90083
CPLX:misses_by_poll: 3

NL_L1: 
NL:times selected: 23
NL:pref_filled: 1
NL:pref_useful: 1
NL:pref_late: 0
NL:misses: 7
NL:misses_by_poll: 0

total selections: 4075026
total_filled: 432908
total_useful: 429960
total_late: 213583
total_polluted: 6
total_misses_after_warmup: 653890
conflicts: 500
Degree Incremented Times: 89505
Degree Decremented Times: 0

L1 IP Table Write Accesses: 7285926
L1 IP Table Read Accesses: 7285426
L1 RST Write Accesses: 1659183
L1 RST Read Accesses: 3318366
L1 CSPT Write Accesses: 1659183
L1 CSPT Read Accesses: 2186935
L1 RR Filter Tag Write Accesses: 660822
L1 RR Filter Tag Read Accesses: 373413969
L1 IP Table Tag Write Accesses: 7287753
L1 IP Table Tag Read Accesses: 7287753
L1 RST Tag Write Accesses: 0
L1 RST Tag Read Accesses: 14932033
L1 RR Filter Write Accesses: 0
L1 RR Filter Read Accesses: 14194722
test: 47534
L2 IP Table Read Accesses: 648106
L2 IP Table Write Accesses: 631088
L2 IP Table Tag Read Accesses: 324344
L2 IP Table Tag Write Accesses: 324344

DRAM Statistics
 CHANNEL 0
 RQ ROW_BUFFER_HIT:      58478  ROW_BUFFER_MISS:     384101
 DBUS_CONGESTED:     925053
 WQ ROW_BUFFER_HIT:      53091  ROW_BUFFER_MISS:     385015  FULL:          0

 AVG_CONGESTED_CYCLE: 145
 All warmup complete: 2
Channel 0 Bank busy for read cycles: 0
Channel 0 Bank busy for write cycles: 0
Channel 0
Rank 0
0banks busy for read cycles: 9333
0banks busy for write cycles: 0
1banks busy for read cycles: 1753309
1banks busy for write cycles: 53080
2banks busy for read cycles: 3093119
2banks busy for write cycles: 53080
3banks busy for read cycles: 4853636
3banks busy for write cycles: 53080
4banks busy for read cycles: 6934537
4banks busy for write cycles: 53080
5banks busy for read cycles: 8707448
5banks busy for write cycles: 53080
6banks busy for read cycles: 7482772
6banks busy for write cycles: 53098
7banks busy for read cycles: 8551925
7banks busy for write cycles: 494471
8banks busy for read cycles: 31788423
8banks busy for write cycles: 70158842

CPU 0 Branch Prediction Accuracy: 99.9751% MPKI: 0.00438 Average ROB Occupancy at Mispredict: 211.502
Branch types
NOT_BRANCH: 49121874 98.2437%
BRANCH_DIRECT_JUMP: 220 0.00044%
BRANCH_INDIRECT: 0 0%
BRANCH_CONDITIONAL: 877404 1.75481%
BRANCH_DIRECT_CALL: 220 0.00044%
BRANCH_INDIRECT_CALL: 0 0%
BRANCH_RETURN: 220 0.00044%
BRANCH_OTHER: 0 0%

@sumon_overall_L1D    429960    213530      2954    432908   1321644   1321644
@Sumon_Early_by_class_L1D    429218       321       373         0
@Sumon_Late_by_class_L1D    213058        28       163         0

@Sumon_Early_by_cycle_L1D      9221     15695     87407     27828      7312     82472    128944     71034        47         0         0         0
@Sumon_Late_by_cycle_L1D     59579     84858      4422      2044      1584     39261     21618       163         0         0         0         0
@Sumon_Early_stream_L1D      9195     15653     87356     27726      7233     82265    128772     70971        47         0         0         0
@Sumon_Early_CS_L1D        11         3        23        39        38        89        76        42         0         0         0         0
@Sumon_Early_CPLX_L1D         6        27        23        58        35       115        88        21         0         0         0         0
@Sumon_Late_stream_L1D     59281     84784      4416      2030      1581     39208     21596       162         0         0         0         0
@Sumon_Late_CS_L1D         0         3         0        10         0        13         2         0         0         0         0         0
@Sumon_Late_CPLX_L1D        55        50         2         3         1        32        19         1         0         0         0         0
@sumon_overall_L2C      1632       993    438179    439573   1810148   1810185
@Sumon_Early_by_class_L2C      1606        16         2         0
@Sumon_Late_by_class_L2C       984         0         0         0

@Sumon_Early_by_cycle_L2C        66        35        61        74        37        60        65        36         2         0         0      1196
@Sumon_Late_by_cycle_L2C       308       363       109        12        12       180         9         0         0         0         0         0
@Sumon_Early_stream_L2C        66        35        61        74        37        60        65        36         1         0         0      1171
@Sumon_Early_CS_L2C         0         0         0         0         0         0         0         0         0         0         0        16
@Sumon_Early_CPLX_L2C         0         0         0         0         0         0         0         0         0         0         0         2
@Sumon_Late_stream_L2C       299       363       109        12        12       180         9         0         0         0         0         0
@Sumon_Late_CS_L2C         0         0         0         0         0         0         0         0         0         0         0         0
@Sumon_Late_CPLX_L2C         0         0         0         0         0         0         0         0         0         0         0         0
DRAM PAGES: 1048576
Allocated PAGES: 8326
