
*** ChampSim Multicore Out-of-Order Simulator ***

Warmup Instructions: 10000000
Simulation Instructions: 50000000
Number of CPUs: 1
LLC sets: 2048
LLC ways: 16
Off-chip DRAM Size: 4096 MB Channels: 1 Width: 64-bit Data Rate: 200 MT/s
CPU 0 runs traces/SPEC2017/649.fotonik3d_s-7084B.champsimtrace.xz
.xz
CPU 0 Bimodal branch predictor
BTB has LRU replacement policy
ITLB has LRU replacement policy
DTLB has LRU replacement policy
STLB has LRU replacement policy
L1I has LRU replacement policy
IP Table Entries: 256
L1D has LRU replacement policy
IP_Table L2 entries: 256
L2C has LRU replacement policy
LLC has LRU replacement policy
Heartbeat CPU 0 instructions: 10000001 cycles: 2908397 heartbeat IPC: 3.43832 cumulative IPC: 3.43832 (Simulation time: 0 hr 11 min 57 sec) 

Warmup complete CPU 0 instructions: 10000001 cycles: 2908397 (Simulation time: 0 hr 11 min 57 sec) 

Heartbeat CPU 0 instructions: 20000002 cycles: 39535451 heartbeat IPC: 0.273022 cumulative IPC: 0.273022 (Simulation time: 0 hr 29 min 0 sec) 
Heartbeat CPU 0 instructions: 30000002 cycles: 76080490 heartbeat IPC: 0.273635 cumulative IPC: 0.273328 (Simulation time: 0 hr 46 min 0 sec) 
Heartbeat CPU 0 instructions: 40000003 cycles: 112622434 heartbeat IPC: 0.273658 cumulative IPC: 0.273438 (Simulation time: 1 hr 2 min 38 sec) 
Heartbeat CPU 0 instructions: 50000002 cycles: 149186235 heartbeat IPC: 0.273495 cumulative IPC: 0.273452 (Simulation time: 1 hr 16 min 5 sec) 
Heartbeat CPU 0 instructions: 60000002 cycles: 185946160 heartbeat IPC: 0.272035 cumulative IPC: 0.273168 (Simulation time: 1 hr 25 min 55 sec) 
Finished CPU 0 instructions: 50000001 cycles: 183037763 cumulative IPC: 0.273168 (Simulation time: 1 hr 25 min 55 sec) 

ChampSim completed all CPUs

Region of Interest Statistics

CPU 0 cumulative IPC: 0.273168 instructions: 50000001 cycles: 183037763
ITLB TOTAL     ACCESS:    6103432  HIT:    6103432  MISS:          0  HIT %:        100  MISS %:          0   MPKI: 0
ITLB LOAD TRANSLATION ACCESS:    6103432  HIT:    6103432  MISS:          0  HIT %:        100  MISS %:          0   MPKI: 0
ITLB PREFETCH  REQUESTED:          0  ISSUED:          0  USEFUL:          0  USELESS:          0
ITLB USEFUL LOAD PREFETCHES:          0 PREFETCH ISSUED TO LOWER LEVEL:          0  ACCURACY: -nan
ITLB TIMELY PREFETCHES:          0 LATE PREFETCHES: 0 DROPPED PREFETCHES: 0
ITLB PREFETCHES SAME FILL-ORIGIN LEVEL: 0 DIFFERENT FILL-ORIGIN LEVEL: 0
ITLB AVERAGE MISS LATENCY: -nan cycles
ITLB RQ	ACCESS:    7441418	FORWARD:          0	MERGED:    1337985	TO_CACHE:    6103433

DTLB TOTAL     ACCESS:   12684823  HIT:   12617886  MISS:      66937  HIT %:    99.4723  MISS %:   0.527694   MPKI: 1.33874
DTLB LOAD TRANSLATION ACCESS:   12684823  HIT:   12617886  MISS:      66937  HIT %:    99.4723  MISS %:   0.527694   MPKI: 1.33874
DTLB PREFETCH  REQUESTED:          0  ISSUED:          0  USEFUL:          0  USELESS:          0
DTLB USEFUL LOAD PREFETCHES:          0 PREFETCH ISSUED TO LOWER LEVEL:          0  ACCURACY: -nan
DTLB TIMELY PREFETCHES:          0 LATE PREFETCHES: 0 DROPPED PREFETCHES: 0
DTLB PREFETCHES SAME FILL-ORIGIN LEVEL: 0 DIFFERENT FILL-ORIGIN LEVEL: 0
DTLB AVERAGE MISS LATENCY: 191.613 cycles
DTLB RQ	ACCESS:   14098721	FORWARD:          0	MERGED:    1412096	TO_CACHE:   12686625

STLB TOTAL     ACCESS:    1085864  HIT:    1072218  MISS:      13646  HIT %:    98.7433  MISS %:     1.2567   MPKI: 0.27292
STLB LOAD TRANSLATION ACCESS:      66937  HIT:      53291  MISS:      13646  HIT %:    79.6137  MISS %:    20.3863   MPKI: 0.27292
STLB TRANSLATION FROM L1D PREFETCHER ACCESS:    1018927  HIT:    1018927  MISS:          0  HIT %:        100  MISS %:          0   MPKI: 0
STLB PREFETCH  REQUESTED:          0  ISSUED:          0  USEFUL:          0  USELESS:          0
STLB USEFUL LOAD PREFETCHES:          0 PREFETCH ISSUED TO LOWER LEVEL:          0  ACCURACY: -nan
STLB TIMELY PREFETCHES:          0 LATE PREFETCHES: 0 DROPPED PREFETCHES: 0
STLB PREFETCHES SAME FILL-ORIGIN LEVEL: 0 DIFFERENT FILL-ORIGIN LEVEL: 0
STLB AVERAGE MISS LATENCY: 894.336 cycles
STLB RQ	ACCESS:    5352201	FORWARD:          0	MERGED:    4266337	TO_CACHE:    1085864

STLB Hit, L1D data hit: 0
STLB Hit, L2C data hit: 0
STLB Hit, LLC data hit: 0
STLB Hit, LLC data miss: 0
STLB STLB hints to L2: 0
L1D TOTAL     ACCESS:   19045175  HIT:   18168743  MISS:     876432  HIT %:    95.3981  MISS %:    4.60186   MPKI: 17.5286
L1D LOAD      ACCESS:   11630200  HIT:   11578824  MISS:      51376  HIT %:    99.5583  MISS %:   0.441746   MPKI: 1.02752
L1D RFO       ACCESS:    2458592  HIT:    2458592  MISS:          0  HIT %:        100  MISS %:          0   MPKI: 0
L1D PREFETCH  ACCESS:    4956383  HIT:    4131327  MISS:     825056  HIT %:    83.3537  MISS %:    16.6463   MPKI: 16.5011
L1D PREFETCH  REQUESTED:   12120929  ISSUED:   10576085  USEFUL:     767783  USELESS:      57303
L1D USEFUL LOAD PREFETCHES:     767783 PREFETCH ISSUED TO LOWER LEVEL:   10779633  ACCURACY: 7.12253
L1D TIMELY PREFETCHES:     767783 LATE PREFETCHES: 30039 DROPPED PREFETCHES: 0
L1D PREFETCHES SAME FILL-ORIGIN LEVEL: 10779633 DIFFERENT FILL-ORIGIN LEVEL: 0
L1D AVERAGE MISS LATENCY: 3.23944e+06 cycles
L1D RQ	ACCESS:   17462552	FORWARD:          0	MERGED:    5794668	TO_CACHE:   11640129
L1D WQ	ACCESS:    2458592	FORWARD:      27755	MERGED:          0	TO_CACHE:    2458592
L1D PQ	ACCESS:    5290821	FORWARD:          0	MERGED:       5557	TO_CACHE:    5285264

L1D UNIQUE REGIONS ACCESSED: 0
L1D REGIONS CONFLICTS: 0
L1D Cross Page Prefetch Requests: 0
L1D Same Page Prefetch Requests: 6564777
L1D ROI Sum of L1D PQ occupancy: 412032622
L1D PREFETCHES PUSHED FROM L2C: 0
L1I TOTAL     ACCESS:    7441417  HIT:    7441417  MISS:          0  HIT %:        100  MISS %:          0   MPKI: 0
L1I LOAD      ACCESS:    7441417  HIT:    7441417  MISS:          0  HIT %:        100  MISS %:          0   MPKI: 0
L1I PREFETCH  REQUESTED:          0  ISSUED:          0  USEFUL:          0  USELESS:          0
L1I USEFUL LOAD PREFETCHES:          0 PREFETCH ISSUED TO LOWER LEVEL:          0  ACCURACY: -nan
L1I TIMELY PREFETCHES:          0 LATE PREFETCHES: 0 DROPPED PREFETCHES: 0
L1I PREFETCHES SAME FILL-ORIGIN LEVEL: 0 DIFFERENT FILL-ORIGIN LEVEL: 0
L1I AVERAGE MISS LATENCY: -nan cycles
L1I RQ	ACCESS:   10901447	FORWARD:          0	MERGED:    3460029	TO_CACHE:    7441418

BTB TOTAL     ACCESS:     336775  HIT:     336772  MISS:          3  HIT %:    99.9991  MISS %: 0.000890802   MPKI: 6e-05
BTB BRANCH_DIRECT_JUMP	ACCESS:          0  HIT:          0  MISS:          0
BTB BRANCH_INDIRECT	ACCESS:          0  HIT:          0  MISS:          0
BTB BRANCH_CONDITIONAL	ACCESS:     336775  HIT:     336772  MISS:          3
BTB BRANCH_DIRECT_CALL	ACCESS:          0  HIT:          0  MISS:          0
BTB BRANCH_INDIRECT_CALL	ACCESS:          0  HIT:          0  MISS:          0
BTB BRANCH_RETURN	ACCESS:          0  HIT:          0  MISS:          0
BTB BRANCH_OTHER ACCESS:          0  HIT:          0  MISS:          0

L2C TOTAL     ACCESS:    2536833  HIT:    1663810  MISS:     873023  HIT %:    65.5861  MISS %:    34.4139   MPKI: 17.4605
L2C LOAD      ACCESS:      21337  HIT:       5711  MISS:      15626  HIT %:    26.7657  MISS %:    73.2343   MPKI: 0.31252
L2C DATA LOAD MPKI: 0.31252
L2C INSTRUCTION LOAD MPKI: 0
L2C PREFETCH  ACCESS:    2242073  HIT:    1386484  MISS:     855589  HIT %:    61.8394  MISS %:    38.1606   MPKI: 17.1118
L2C DATA PREFETCH MPKI: 17.1118
L2C INSTRUCTION PREFETCH MPKI: 0
L2C WRITEBACK ACCESS:     259777  HIT:     259715  MISS:         62  HIT %:    99.9761  MISS %:  0.0238666   MPKI: 0.00124
L2C LOAD TRANSLATION ACCESS:      13646  HIT:      11900  MISS:       1746  HIT %:     87.205  MISS %:     12.795   MPKI: 0.03492
L2C PREFETCH  REQUESTED:    3518775  ISSUED:    3012273  USEFUL:       5376  USELESS:     850293
L2C USEFUL LOAD PREFETCHES:       5376 PREFETCH ISSUED TO LOWER LEVEL:     856806  ACCURACY: 0.627447
L2C TIMELY PREFETCHES:       5376 LATE PREFETCHES: 1195 DROPPED PREFETCHES: 0
L2C PREFETCHES SAME FILL-ORIGIN LEVEL: 731651 DIFFERENT FILL-ORIGIN LEVEL: 0
L2C AVERAGE MISS LATENCY: 5360.41 cycles
L2C RQ	ACCESS:      34983	FORWARD:          0	MERGED:          0	TO_CACHE:      34983
L2C WQ	ACCESS:     259777	FORWARD:          0	MERGED:          0	TO_CACHE:     259777
L2C PQ	ACCESS:    3867377	FORWARD:          0	MERGED:     982607	TO_CACHE:    2884770

L2C Instructions Evicting Data 0
L2C Translations Evicting Data 1746
L2C Data Evicting Data 869466
L2C Instructions Evicting Instructions 0
L2C Translations Evicting Instructions 0
L2C Data Evicting Instructions 0
L2C Instructions Evicting Translations 0
L2C Translations Evicting Translations 0
L2C Data Evicting Translations 1749
L2C Dense regions hint from L2: 0
PSCL5 TOTAL     ACCESS:      13646  HIT:      13646  MISS:          0  HIT %:        100  MISS %:          0   MPKI: 0
PSCL5 LOAD TRANSLATION ACCESS:      13646  HIT:      13646  MISS:          0  HIT %:        100  MISS %:          0   MPKI: 0
PSCL5 PREFETCH  REQUESTED:          0  ISSUED:          0  USEFUL:          0  USELESS:          0
PSCL5 USEFUL LOAD PREFETCHES:          0 PREFETCH ISSUED TO LOWER LEVEL:          0  ACCURACY: -nan
PSCL5 TIMELY PREFETCHES:          0 LATE PREFETCHES: 0 DROPPED PREFETCHES: 0
PSCL5 PREFETCHES SAME FILL-ORIGIN LEVEL: 0 DIFFERENT FILL-ORIGIN LEVEL: 0

PSCL4 TOTAL     ACCESS:      13646  HIT:      13646  MISS:          0  HIT %:        100  MISS %:          0   MPKI: 0
PSCL4 LOAD TRANSLATION ACCESS:      13646  HIT:      13646  MISS:          0  HIT %:        100  MISS %:          0   MPKI: 0
PSCL4 PREFETCH  REQUESTED:          0  ISSUED:          0  USEFUL:          0  USELESS:          0
PSCL4 USEFUL LOAD PREFETCHES:          0 PREFETCH ISSUED TO LOWER LEVEL:          0  ACCURACY: -nan
PSCL4 TIMELY PREFETCHES:          0 LATE PREFETCHES: 0 DROPPED PREFETCHES: 0
PSCL4 PREFETCHES SAME FILL-ORIGIN LEVEL: 0 DIFFERENT FILL-ORIGIN LEVEL: 0

PSCL3 TOTAL     ACCESS:      13646  HIT:      13646  MISS:          0  HIT %:        100  MISS %:          0   MPKI: 0
PSCL3 LOAD TRANSLATION ACCESS:      13646  HIT:      13646  MISS:          0  HIT %:        100  MISS %:          0   MPKI: 0
PSCL3 PREFETCH  REQUESTED:          0  ISSUED:          0  USEFUL:          0  USELESS:          0
PSCL3 USEFUL LOAD PREFETCHES:          0 PREFETCH ISSUED TO LOWER LEVEL:          0  ACCURACY: -nan
PSCL3 TIMELY PREFETCHES:          0 LATE PREFETCHES: 0 DROPPED PREFETCHES: 0
PSCL3 PREFETCHES SAME FILL-ORIGIN LEVEL: 0 DIFFERENT FILL-ORIGIN LEVEL: 0

PSCL2 TOTAL     ACCESS:      13646  HIT:      13625  MISS:         21  HIT %:    99.8461  MISS %:   0.153891   MPKI: 0.00042
PSCL2 LOAD TRANSLATION ACCESS:      13646  HIT:      13625  MISS:         21  HIT %:    99.8461  MISS %:   0.153891   MPKI: 0.00042
PSCL2 PREFETCH  REQUESTED:          0  ISSUED:          0  USEFUL:          0  USELESS:          0
PSCL2 USEFUL LOAD PREFETCHES:          0 PREFETCH ISSUED TO LOWER LEVEL:          0  ACCURACY: -nan
PSCL2 TIMELY PREFETCHES:          0 LATE PREFETCHES: 0 DROPPED PREFETCHES: 0
PSCL2 PREFETCHES SAME FILL-ORIGIN LEVEL: 0 DIFFERENT FILL-ORIGIN LEVEL: 0

LLC TOTAL     ACCESS:    1132691  HIT:     260036  MISS:     872655  HIT %:    22.9574  MISS %:    77.0426   MPKI: 17.4531
LLC LOAD      ACCESS:      14431  HIT:         30  MISS:      14401  HIT %:   0.207886  MISS %:    99.7921   MPKI: 0.28802
LLC PREFETCH  ACCESS:     856784  HIT:        315  MISS:     856469  HIT %:  0.0367654  MISS %:    99.9632   MPKI: 17.1294
LLC WRITEBACK ACCESS:     259730  HIT:     259691  MISS:         39  HIT %:     99.985  MISS %:  0.0150156   MPKI: 0.00078
LLC LOAD TRANSLATION ACCESS:       1746  HIT:          0  MISS:       1746  HIT %:          0  MISS %:        100   MPKI: 0.03492
LLC PREFETCH  REQUESTED:          0  ISSUED:          0  USEFUL:          0  USELESS:     856488
LLC USEFUL LOAD PREFETCHES:          0 PREFETCH ISSUED TO LOWER LEVEL:     856491  ACCURACY: 0
LLC TIMELY PREFETCHES:          0 LATE PREFETCHES: 0 DROPPED PREFETCHES: 0
LLC PREFETCHES SAME FILL-ORIGIN LEVEL: 0 DIFFERENT FILL-ORIGIN LEVEL: 0
LLC AVERAGE MISS LATENCY: 5339.98 cycles
LLC RQ	ACCESS:      16177	FORWARD:          0	MERGED:          0	TO_CACHE:      16177
LLC WQ	ACCESS:     259730	FORWARD:          0	MERGED:          0	TO_CACHE:     259730
LLC PQ	ACCESS:     856806	FORWARD:          0	MERGED:          0	TO_CACHE:     856806

LLC Dense regions hint to LLC: 0

RAW hits: 223854
Loads Generated: 17686394
Loads sent to L1D: 17462552
Stores Generated: 2458593
Stores sent to L1D: 2458592
Major fault: 0 Minor fault: 13917
Allocated PAGES: 13917

stream: 
stream:times selected: 2075253
stream:pref_filled: 987282
stream:pref_useful: 920592
stream:pref_late: 29728
stream:misses: 70
stream:misses_by_poll: 0

CS: 
CS:times selected: 1804509
CS:pref_filled: 5572
CS:pref_useful: 5240
CS:pref_late: 278
CS:misses: 62648
CS:misses_by_poll: 38

CPLX: 
CPLX:times selected: 270630
CPLX:pref_filled: 4641
CPLX:pref_useful: 2829
CPLX:pref_late: 11
CPLX:misses: 838
CPLX:misses_by_poll: 6

NL_L1: 
NL:times selected: 6
NL:pref_filled: 5
NL:pref_useful: 5
NL:pref_late: 0
NL:misses: 0
NL:misses_by_poll: 0

total selections: 4150398
total_filled: 825056
total_useful: 767783
total_late: 30047
total_polluted: 44
total_misses_after_warmup: 61308
conflicts: 23614
Degree Incremented Times: 80249
Degree Decremented Times: 0

L1 IP Table Write Accesses: 11253773
L1 IP Table Read Accesses: 11230159
L1 RST Write Accesses: 1728467
L1 RST Read Accesses: 3456934
L1 CSPT Write Accesses: 1728467
L1 CSPT Read Accesses: 2413631
L1 RR Filter Tag Write Accesses: 6835665
L1 RR Filter Tag Read Accesses: 405569818
L1 IP Table Tag Write Accesses: 11640132
L1 IP Table Tag Read Accesses: 11640132
L1 RST Tag Write Accesses: 0
L1 RST Tag Read Accesses: 15970876
L1 RR Filter Write Accesses: 0
L1 RR Filter Read Accesses: 14838904
test: 46983
L2 IP Table Read Accesses: 1259937
L2 IP Table Write Accesses: 1238705
L2 IP Table Tag Read Accesses: 630018
L2 IP Table Tag Write Accesses: 630018

DRAM Statistics
 CHANNEL 0
 RQ ROW_BUFFER_HIT:     462954  ROW_BUFFER_MISS:     409662
 DBUS_CONGESTED:    1161024
 WQ ROW_BUFFER_HIT:      23600  ROW_BUFFER_MISS:     236625  FULL:          0

 AVG_CONGESTED_CYCLE: 152
 All warmup complete: 2
Channel 0 Bank busy for read cycles: 0
Channel 0 Bank busy for write cycles: 0
Channel 0
Rank 0
0banks busy for read cycles: 2108
0banks busy for write cycles: 0
1banks busy for read cycles: 452062
1banks busy for write cycles: 29614
2banks busy for read cycles: 856623
2banks busy for write cycles: 29613
3banks busy for read cycles: 1435447
3banks busy for write cycles: 29612
4banks busy for read cycles: 2308296
4banks busy for write cycles: 29610
5banks busy for read cycles: 3733850
5banks busy for write cycles: 29610
6banks busy for read cycles: 6519890
6banks busy for write cycles: 29815
7banks busy for read cycles: 14782668
7banks busy for write cycles: 322431
8banks busy for read cycles: 110948752
8banks busy for write cycles: 41497763

CPU 0 Branch Prediction Accuracy: 99.186% MPKI: 0.0562 Average ROB Occupancy at Mispredict: 106.166
Branch types
NOT_BRANCH: 49654460 99.3089%
BRANCH_DIRECT_JUMP: 0 0%
BRANCH_INDIRECT: 0 0%
BRANCH_CONDITIONAL: 345199 0.690398%
BRANCH_DIRECT_CALL: 0 0%
BRANCH_INDIRECT_CALL: 0 0%
BRANCH_RETURN: 0 0%
BRANCH_OTHER: 0 0%

@sumon_overall_L1D    767783     30039     57303    825056  10576085  12120929
@Sumon_Early_by_class_L1D    760941      4347      2495         0
@Sumon_Late_by_class_L1D     29720       278        11         0

@Sumon_Early_by_cycle_L1D      3433      3838      5111      7248      5973     55698    122799    204302    267612     87702      2458      1609
@Sumon_Late_by_cycle_L1D      1566      1937      2236      2282      1704      7590      6841      5451       432         0         0         0
@Sumon_Early_stream_L1D      3390      3781      5075      7193      5917     55357    122500    203863    267099     86761         5         0
@Sumon_Early_CS_L1D        41        51        34        52        54       332       270       384       212       242      1067      1608
@Sumon_Early_CPLX_L1D         2         6         2         3         2         9        29        55       301       699      1386         1
@Sumon_Late_stream_L1D      1518      1911      2210      2266      1688      7515      6785      5397       430         0         0         0
@Sumon_Late_CS_L1D        17        24        23        16        16        74        56        51         1         0         0         0
@Sumon_Late_CPLX_L1D         1         2         3         0         0         1         0         3         1         0         0         0
@sumon_overall_L2C      5376      1195    850293    855589   3012273   3518775
@Sumon_Early_by_class_L2C      5366         8         0         0
@Sumon_Late_by_class_L2C      1181        10         0         0

@Sumon_Early_by_cycle_L2C        29       163       107       106        93       594       974      1708      1352       224        24         2
@Sumon_Late_by_cycle_L2C        52        71        96        88        63       297       305       196        27         0         0         0
@Sumon_Early_stream_L2C        29       162       107       105        93       591       973      1706      1351       224        24         1
@Sumon_Early_CS_L2C         0         1         0         0         0         3         1         2         1         0         0         0
@Sumon_Early_CPLX_L2C         0         0         0         0         0         0         0         0         0         0         0         0
@Sumon_Late_stream_L2C        49        71        95        87        62       295       302       193        27         0         0         0
@Sumon_Late_CS_L2C         1         0         1         1         1         1         2         3         0         0         0         0
@Sumon_Late_CPLX_L2C         0         0         0         0         0         0         0         0         0         0         0         0
DRAM PAGES: 1048576
Allocated PAGES: 13917
