
*** ChampSim Multicore Out-of-Order Simulator ***

Warmup Instructions: 10000000
Simulation Instructions: 50000000
Number of CPUs: 1
LLC sets: 2048
LLC ways: 16
Off-chip DRAM Size: 4096 MB Channels: 1 Width: 64-bit Data Rate: 200 MT/s
CPU 0 runs traces/SPEC2017/654.roms_s-1070B.champsimtrace.xz
.xz
CPU 0 Bimodal branch predictor
BTB has LRU replacement policy
ITLB has LRU replacement policy
DTLB has LRU replacement policy
STLB has LRU replacement policy
L1I has LRU replacement policy
IP Table Entries: 256
L1D has LRU replacement policy
IP_Table L2 entries: 256
L2C has LRU replacement policy
LLC has LRU replacement policy
Heartbeat CPU 0 instructions: 10000002 cycles: 3109880 heartbeat IPC: 3.21556 cumulative IPC: 3.21556 (Simulation time: 0 hr 11 min 42 sec) 

Warmup complete CPU 0 instructions: 10000002 cycles: 3109880 (Simulation time: 0 hr 11 min 42 sec) 

Heartbeat CPU 0 instructions: 20000000 cycles: 42647726 heartbeat IPC: 0.252922 cumulative IPC: 0.252922 (Simulation time: 0 hr 31 min 58 sec) 
Heartbeat CPU 0 instructions: 30000003 cycles: 94834728 heartbeat IPC: 0.191619 cumulative IPC: 0.218043 (Simulation time: 0 hr 57 min 16 sec) 
Heartbeat CPU 0 instructions: 40000003 cycles: 145640515 heartbeat IPC: 0.196828 cumulative IPC: 0.210481 (Simulation time: 1 hr 19 min 31 sec) 
Heartbeat CPU 0 instructions: 50000003 cycles: 179335415 heartbeat IPC: 0.296781 cumulative IPC: 0.226982 (Simulation time: 1 hr 27 min 50 sec) 
Heartbeat CPU 0 instructions: 60000000 cycles: 245210279 heartbeat IPC: 0.151803 cumulative IPC: 0.206526 (Simulation time: 1 hr 40 min 9 sec) 
Finished CPU 0 instructions: 50000002 cycles: 242100401 cumulative IPC: 0.206526 (Simulation time: 1 hr 40 min 9 sec) 

ChampSim completed all CPUs

Region of Interest Statistics

CPU 0 cumulative IPC: 0.206526 instructions: 50000002 cycles: 242100401
ITLB TOTAL     ACCESS:    7759715  HIT:    7759715  MISS:          0  HIT %:        100  MISS %:          0   MPKI: 0
ITLB LOAD TRANSLATION ACCESS:    7759715  HIT:    7759715  MISS:          0  HIT %:        100  MISS %:          0   MPKI: 0
ITLB PREFETCH  REQUESTED:          0  ISSUED:          0  USEFUL:          0  USELESS:          0
ITLB USEFUL LOAD PREFETCHES:          0 PREFETCH ISSUED TO LOWER LEVEL:          0  ACCURACY: -nan
ITLB TIMELY PREFETCHES:          0 LATE PREFETCHES: 0 DROPPED PREFETCHES: 0
ITLB PREFETCHES SAME FILL-ORIGIN LEVEL: 0 DIFFERENT FILL-ORIGIN LEVEL: 0
ITLB AVERAGE MISS LATENCY: -nan cycles
ITLB RQ	ACCESS:    8284699	FORWARD:          0	MERGED:     524985	TO_CACHE:    7759714

DTLB TOTAL     ACCESS:   12348974  HIT:   12324887  MISS:      24087  HIT %:    99.8049  MISS %:   0.195053   MPKI: 0.48174
DTLB LOAD TRANSLATION ACCESS:   12348974  HIT:   12324887  MISS:      24087  HIT %:    99.8049  MISS %:   0.195053   MPKI: 0.48174
DTLB PREFETCH  REQUESTED:          0  ISSUED:          0  USEFUL:          0  USELESS:          0
DTLB USEFUL LOAD PREFETCHES:          0 PREFETCH ISSUED TO LOWER LEVEL:          0  ACCURACY: -nan
DTLB TIMELY PREFETCHES:          0 LATE PREFETCHES: 0 DROPPED PREFETCHES: 0
DTLB PREFETCHES SAME FILL-ORIGIN LEVEL: 0 DIFFERENT FILL-ORIGIN LEVEL: 0
DTLB AVERAGE MISS LATENCY: 1592.86 cycles
DTLB RQ	ACCESS:   13654384	FORWARD:          0	MERGED:    1261300	TO_CACHE:   12393084

STLB TOTAL     ACCESS:     688835  HIT:     664762  MISS:      24073  HIT %:    96.5053  MISS %:    3.49474   MPKI: 0.48146
STLB LOAD TRANSLATION ACCESS:      24087  HIT:         14  MISS:      24073  HIT %:  0.0581226  MISS %:    99.9419   MPKI: 0.48146
STLB TRANSLATION FROM L1D PREFETCHER ACCESS:     664748  HIT:     664748  MISS:          0  HIT %:        100  MISS %:          0   MPKI: 0
STLB PREFETCH  REQUESTED:          0  ISSUED:          0  USEFUL:          0  USELESS:          0
STLB USEFUL LOAD PREFETCHES:          0 PREFETCH ISSUED TO LOWER LEVEL:          0  ACCURACY: -nan
STLB TIMELY PREFETCHES:          0 LATE PREFETCHES: 0 DROPPED PREFETCHES: 0
STLB PREFETCHES SAME FILL-ORIGIN LEVEL: 0 DIFFERENT FILL-ORIGIN LEVEL: 0
STLB AVERAGE MISS LATENCY: 1582.04 cycles
STLB RQ	ACCESS:    2069604	FORWARD:          0	MERGED:    1380769	TO_CACHE:     688835

STLB Hit, L1D data hit: 0
STLB Hit, L2C data hit: 0
STLB Hit, LLC data hit: 0
STLB Hit, LLC data miss: 0
STLB STLB hints to L2: 0
L1D TOTAL     ACCESS:   12954158  HIT:   11831195  MISS:    1122963  HIT %:    91.3313  MISS %:    8.66875   MPKI: 22.4593
L1D LOAD      ACCESS:   10739437  HIT:   10613391  MISS:     126046  HIT %:    98.8263  MISS %:    1.17367   MPKI: 2.52092
L1D RFO       ACCESS:     436492  HIT:      92113  MISS:     344379  HIT %:     21.103  MISS %:     78.897   MPKI: 6.88758
L1D PREFETCH  ACCESS:    1778229  HIT:    1125691  MISS:     652538  HIT %:    63.3041  MISS %:    36.6959   MPKI: 13.0508
L1D PREFETCH  REQUESTED:    4780923  ISSUED:    4101791  USEFUL:     618531  USELESS:      34014
L1D USEFUL LOAD PREFETCHES:     618531 PREFETCH ISSUED TO LOWER LEVEL:    2541161  ACCURACY: 24.3405
L1D TIMELY PREFETCHES:     618531 LATE PREFETCHES: 77719 DROPPED PREFETCHES: 0
L1D PREFETCHES SAME FILL-ORIGIN LEVEL: 2541161 DIFFERENT FILL-ORIGIN LEVEL: 0
L1D AVERAGE MISS LATENCY: 8.83113e+06 cycles
L1D RQ	ACCESS:   18807447	FORWARD:          0	MERGED:    7891789	TO_CACHE:   10915658
L1D WQ	ACCESS:    2738726	FORWARD:          0	MERGED:          0	TO_CACHE:    2738726
L1D PQ	ACCESS:    2056274	FORWARD:          0	MERGED:      10757	TO_CACHE:    2045517

L1D UNIQUE REGIONS ACCESSED: 0
L1D REGIONS CONFLICTS: 0
L1D Cross Page Prefetch Requests: 0
L1D Same Page Prefetch Requests: 2352683
L1D ROI Sum of L1D PQ occupancy: 831504960
L1D PREFETCHES PUSHED FROM L2C: 0
L1I TOTAL     ACCESS:    8284700  HIT:    8284700  MISS:          0  HIT %:        100  MISS %:          0   MPKI: 0
L1I LOAD      ACCESS:    8284700  HIT:    8284700  MISS:          0  HIT %:        100  MISS %:          0   MPKI: 0
L1I PREFETCH  REQUESTED:          0  ISSUED:          0  USEFUL:          0  USELESS:          0
L1I USEFUL LOAD PREFETCHES:          0 PREFETCH ISSUED TO LOWER LEVEL:          0  ACCURACY: -nan
L1I TIMELY PREFETCHES:          0 LATE PREFETCHES: 0 DROPPED PREFETCHES: 0
L1I PREFETCHES SAME FILL-ORIGIN LEVEL: 0 DIFFERENT FILL-ORIGIN LEVEL: 0
L1I AVERAGE MISS LATENCY: -nan cycles
L1I RQ	ACCESS:   13457853	FORWARD:          0	MERGED:    5173154	TO_CACHE:    8284699

BTB TOTAL     ACCESS:    2779529  HIT:    2779520  MISS:          9  HIT %:    99.9997  MISS %: 0.000323796   MPKI: 0.00018
BTB BRANCH_DIRECT_JUMP	ACCESS:          0  HIT:          0  MISS:          0
BTB BRANCH_INDIRECT	ACCESS:          0  HIT:          0  MISS:          0
BTB BRANCH_CONDITIONAL	ACCESS:    2779529  HIT:    2779520  MISS:          9
BTB BRANCH_DIRECT_CALL	ACCESS:          0  HIT:          0  MISS:          0
BTB BRANCH_INDIRECT_CALL	ACCESS:          0  HIT:          0  MISS:          0
BTB BRANCH_RETURN	ACCESS:          0  HIT:          0  MISS:          0
BTB BRANCH_OTHER ACCESS:          0  HIT:          0  MISS:          0

L2C TOTAL     ACCESS:    2339778  HIT:    1186009  MISS:    1153769  HIT %:     50.689  MISS %:     49.311   MPKI: 23.0754
L2C LOAD      ACCESS:      48326  HIT:      20488  MISS:      27838  HIT %:    42.3954  MISS %:    57.6046   MPKI: 0.55676
L2C DATA LOAD MPKI: 0.55676
L2C INSTRUCTION LOAD MPKI: 0
L2C RFO       ACCESS:     344379  HIT:          0  MISS:     344379  HIT %:          0  MISS %:        100   MPKI: 6.88758
L2C PREFETCH  ACCESS:    1578494  HIT:     801872  MISS:     776622  HIT %:    50.7998  MISS %:    49.2002   MPKI: 15.5324
L2C DATA PREFETCH MPKI: 15.5324
L2C INSTRUCTION PREFETCH MPKI: 0
L2C WRITEBACK ACCESS:     344482  HIT:     344456  MISS:         26  HIT %:    99.9925  MISS %: 0.00754756   MPKI: 0.00052
L2C LOAD TRANSLATION ACCESS:      24097  HIT:      19193  MISS:       4904  HIT %:    79.6489  MISS %:    20.3511   MPKI: 0.09808
L2C PREFETCH  REQUESTED:    2344030  ISSUED:    2200900  USEFUL:      20023  USELESS:     756637
L2C USEFUL LOAD PREFETCHES:      20023 PREFETCH ISSUED TO LOWER LEVEL:     783694  ACCURACY: 2.55495
L2C TIMELY PREFETCHES:      20023 LATE PREFETCHES: 7069 DROPPED PREFETCHES: 0
L2C PREFETCHES SAME FILL-ORIGIN LEVEL: 683114 DIFFERENT FILL-ORIGIN LEVEL: 0
L2C AVERAGE MISS LATENCY: 4485.93 cycles
L2C RQ	ACCESS:     416810	FORWARD:          0	MERGED:          0	TO_CACHE:     416809
L2C WQ	ACCESS:     344482	FORWARD:          1	MERGED:          0	TO_CACHE:     344482
L2C PQ	ACCESS:    2931159	FORWARD:          0	MERGED:     447204	TO_CACHE:    2483955

L2C Instructions Evicting Data 0
L2C Translations Evicting Data 4854
L2C Data Evicting Data 1143982
L2C Instructions Evicting Instructions 0
L2C Translations Evicting Instructions 0
L2C Data Evicting Instructions 0
L2C Instructions Evicting Translations 0
L2C Translations Evicting Translations 50
L2C Data Evicting Translations 4857
L2C Dense regions hint from L2: 0
PSCL5 TOTAL     ACCESS:      24073  HIT:      24073  MISS:          0  HIT %:        100  MISS %:          0   MPKI: 0
PSCL5 LOAD TRANSLATION ACCESS:      24073  HIT:      24073  MISS:          0  HIT %:        100  MISS %:          0   MPKI: 0
PSCL5 PREFETCH  REQUESTED:          0  ISSUED:          0  USEFUL:          0  USELESS:          0
PSCL5 USEFUL LOAD PREFETCHES:          0 PREFETCH ISSUED TO LOWER LEVEL:          0  ACCURACY: -nan
PSCL5 TIMELY PREFETCHES:          0 LATE PREFETCHES: 0 DROPPED PREFETCHES: 0
PSCL5 PREFETCHES SAME FILL-ORIGIN LEVEL: 0 DIFFERENT FILL-ORIGIN LEVEL: 0

PSCL4 TOTAL     ACCESS:      24073  HIT:      24073  MISS:          0  HIT %:        100  MISS %:          0   MPKI: 0
PSCL4 LOAD TRANSLATION ACCESS:      24073  HIT:      24073  MISS:          0  HIT %:        100  MISS %:          0   MPKI: 0
PSCL4 PREFETCH  REQUESTED:          0  ISSUED:          0  USEFUL:          0  USELESS:          0
PSCL4 USEFUL LOAD PREFETCHES:          0 PREFETCH ISSUED TO LOWER LEVEL:          0  ACCURACY: -nan
PSCL4 TIMELY PREFETCHES:          0 LATE PREFETCHES: 0 DROPPED PREFETCHES: 0
PSCL4 PREFETCHES SAME FILL-ORIGIN LEVEL: 0 DIFFERENT FILL-ORIGIN LEVEL: 0

PSCL3 TOTAL     ACCESS:      24073  HIT:      24073  MISS:          0  HIT %:        100  MISS %:          0   MPKI: 0
PSCL3 LOAD TRANSLATION ACCESS:      24073  HIT:      24073  MISS:          0  HIT %:        100  MISS %:          0   MPKI: 0
PSCL3 PREFETCH  REQUESTED:          0  ISSUED:          0  USEFUL:          0  USELESS:          0
PSCL3 USEFUL LOAD PREFETCHES:          0 PREFETCH ISSUED TO LOWER LEVEL:          0  ACCURACY: -nan
PSCL3 TIMELY PREFETCHES:          0 LATE PREFETCHES: 0 DROPPED PREFETCHES: 0
PSCL3 PREFETCHES SAME FILL-ORIGIN LEVEL: 0 DIFFERENT FILL-ORIGIN LEVEL: 0

PSCL2 TOTAL     ACCESS:      24073  HIT:      24008  MISS:         65  HIT %:      99.73  MISS %:   0.270012   MPKI: 0.0013
PSCL2 LOAD TRANSLATION ACCESS:      24073  HIT:      24008  MISS:         65  HIT %:      99.73  MISS %:   0.270012   MPKI: 0.0013
PSCL2 PREFETCH  REQUESTED:          0  ISSUED:          0  USEFUL:          0  USELESS:          0
PSCL2 USEFUL LOAD PREFETCHES:          0 PREFETCH ISSUED TO LOWER LEVEL:          0  ACCURACY: -nan
PSCL2 TIMELY PREFETCHES:          0 LATE PREFETCHES: 0 DROPPED PREFETCHES: 0
PSCL2 PREFETCHES SAME FILL-ORIGIN LEVEL: 0 DIFFERENT FILL-ORIGIN LEVEL: 0

LLC TOTAL     ACCESS:    1498251  HIT:     344493  MISS:    1153758  HIT %:     22.993  MISS %:     77.007   MPKI: 23.0752
LLC LOAD      ACCESS:      20769  HIT:          0  MISS:      20769  HIT %:          0  MISS %:        100   MPKI: 0.41538
LLC RFO       ACCESS:     344379  HIT:          0  MISS:     344379  HIT %:          0  MISS %:        100   MPKI: 6.88758
LLC PREFETCH  ACCESS:     783691  HIT:          0  MISS:     783691  HIT %:          0  MISS %:        100   MPKI: 15.6738
LLC WRITEBACK ACCESS:     344508  HIT:     344482  MISS:         26  HIT %:    99.9925  MISS %: 0.00754699   MPKI: 0.00052
LLC LOAD TRANSLATION ACCESS:       4904  HIT:         11  MISS:       4893  HIT %:   0.224307  MISS %:    99.7757   MPKI: 0.09786
LLC PREFETCH  REQUESTED:          0  ISSUED:          0  USEFUL:          0  USELESS:     783524
LLC USEFUL LOAD PREFETCHES:          0 PREFETCH ISSUED TO LOWER LEVEL:     783694  ACCURACY: 0
LLC TIMELY PREFETCHES:          0 LATE PREFETCHES: 0 DROPPED PREFETCHES: 0
LLC PREFETCHES SAME FILL-ORIGIN LEVEL: 0 DIFFERENT FILL-ORIGIN LEVEL: 0
LLC AVERAGE MISS LATENCY: 4478.44 cycles
LLC RQ	ACCESS:     370059	FORWARD:          0	MERGED:          0	TO_CACHE:     370059
LLC WQ	ACCESS:     344508	FORWARD:          0	MERGED:          0	TO_CACHE:     344508
LLC PQ	ACCESS:     783694	FORWARD:          0	MERGED:          0	TO_CACHE:     783694

LLC Dense regions hint to LLC: 0

RAW hits: 2
Loads Generated: 18807450
Loads sent to L1D: 18807447
Stores Generated: 2738725
Stores sent to L1D: 2738726
Major fault: 0 Minor fault: 15227
Allocated PAGES: 15227

stream: 
stream:times selected: 1890595
stream:pref_filled: 804915
stream:pref_useful: 763817
stream:pref_late: 77487
stream:misses: 188
stream:misses_by_poll: 0

CS: 
CS:times selected: 1779862
CS:pref_filled: 1528
CS:pref_useful: 1453
CS:pref_late: 195
CS:misses: 298124
CS:misses_by_poll: 10

CPLX: 
CPLX:times selected: 110648
CPLX:pref_filled: 598
CPLX:pref_useful: 25
CPLX:pref_late: 19
CPLX:misses: 8302
CPLX:misses_by_poll: 2

NL_L1: 
NL:times selected: 157
NL:pref_filled: 3
NL:pref_useful: 3
NL:pref_late: 0
NL:misses: 5
NL:misses_by_poll: 0

total selections: 3781262
total_filled: 652538
total_useful: 618531
total_late: 77945
total_polluted: 12
total_misses_after_warmup: 302268
conflicts: 39
Degree Incremented Times: 56537
Degree Decremented Times: 3465

L1 IP Table Write Accesses: 10912628
L1 IP Table Read Accesses: 10912589
L1 RST Write Accesses: 1592799
L1 RST Read Accesses: 3185598
L1 CSPT Write Accesses: 1592799
L1 CSPT Read Accesses: 1750459
L1 RR Filter Tag Write Accesses: 2735406
L1 RR Filter Tag Read Accesses: 337910073
L1 IP Table Tag Write Accesses: 10915659
L1 IP Table Tag Read Accesses: 10915659
L1 RST Tag Write Accesses: 0
L1 RST Tag Read Accesses: 14399647
L1 RR Filter Write Accesses: 0
L1 RR Filter Read Accesses: 13452358
test: 40655
L2 IP Table Read Accesses: 832773
L2 IP Table Write Accesses: 784461
L2 IP Table Tag Read Accesses: 416390
L2 IP Table Tag Write Accesses: 416390

DRAM Statistics
 CHANNEL 0
 RQ ROW_BUFFER_HIT:     455539  ROW_BUFFER_MISS:     698193
 DBUS_CONGESTED:    1535414
 WQ ROW_BUFFER_HIT:      24085  ROW_BUFFER_MISS:     320446  FULL:          0

 AVG_CONGESTED_CYCLE: 152
 All warmup complete: 2
Channel 0 Bank busy for read cycles: 0
Channel 0 Bank busy for write cycles: 0
Channel 0
Rank 0
0banks busy for read cycles: 3035
0banks busy for write cycles: 0
1banks busy for read cycles: 689897
1banks busy for write cycles: 39521
2banks busy for read cycles: 1187481
2banks busy for write cycles: 39521
3banks busy for read cycles: 1851615
3banks busy for write cycles: 39521
4banks busy for read cycles: 2802148
4banks busy for write cycles: 39521
5banks busy for read cycles: 4212051
5banks busy for write cycles: 39526
6banks busy for read cycles: 6954071
6banks busy for write cycles: 41129
7banks busy for read cycles: 18105176
7banks busy for write cycles: 513695
8banks busy for read cycles: 150675773
8banks busy for write cycles: 54866721

CPU 0 Branch Prediction Accuracy: 99.8858% MPKI: 0.06352 Average ROB Occupancy at Mispredict: 257.434
Branch types
NOT_BRANCH: 47219347 94.4387%
BRANCH_DIRECT_JUMP: 0 0%
BRANCH_INDIRECT: 0 0%
BRANCH_CONDITIONAL: 2780656 5.56131%
BRANCH_DIRECT_CALL: 0 0%
BRANCH_INDIRECT_CALL: 0 0%
BRANCH_RETURN: 0 0%
BRANCH_OTHER: 0 0%

@sumon_overall_L1D    618531     77719     34014    652538   4101791   4780923
@Sumon_Early_by_class_L1D    617204      1302        25         0
@Sumon_Late_by_class_L1D     77261       195        19         0

@Sumon_Early_by_cycle_L1D      9698     11095     22950     19038     17634    144797    130462    192045     68703      2109         0         0
@Sumon_Late_by_cycle_L1D      9116      7601      9444      6008      4008     18443     14935      7705       459         0         0         0
@Sumon_Early_stream_L1D      9673     11023     22864     18922     17528    144509    130235    191707     68642      2101         0         0
@Sumon_Early_CS_L1D        25        70        84       116       106       288       227       336        50         0         0         0
@Sumon_Early_CPLX_L1D         0         2         2         0         0         0         0         2        11         8         0         0
@Sumon_Late_stream_L1D      8857      7588      9419      5997      3993     18391     14881      7682       453         0         0         0
@Sumon_Late_CS_L1D        15        12        24         9        11        48        49        21         6         0         0         0
@Sumon_Late_CPLX_L1D         0         1         1         2         4         4         5         2         0         0         0         0
@sumon_overall_L2C     20023      7069    756637    776622   2200900   2344030
@Sumon_Early_by_class_L2C     20019         4         0         0
@Sumon_Late_by_class_L2C      7065         3         0         0

@Sumon_Early_by_cycle_L2C       185       335       684       696       942      4468      7814      4013       855        31         0         0
@Sumon_Late_by_cycle_L2C        41       370       596       284       445      2008      2309       981        34         1         0         0
@Sumon_Early_stream_L2C       184       335       684       695       942      4468      7812      4013       855        31         0         0
@Sumon_Early_CS_L2C         1         0         0         1         0         0         2         0         0         0         0         0
@Sumon_Early_CPLX_L2C         0         0         0         0         0         0         0         0         0         0         0         0
@Sumon_Late_stream_L2C        40       370       596       284       444      2008      2309       979        34         1         0         0
@Sumon_Late_CS_L2C         0         0         0         0         1         0         0         2         0         0         0         0
@Sumon_Late_CPLX_L2C         0         0         0         0         0         0         0         0         0         0         0         0
DRAM PAGES: 1048576
Allocated PAGES: 15227
