
*** ChampSim Multicore Out-of-Order Simulator ***

Warmup Instructions: 10000000
Simulation Instructions: 50000000
Number of CPUs: 1
LLC sets: 2048
LLC ways: 16
Off-chip DRAM Size: 4096 MB Channels: 1 Width: 64-bit Data Rate: 6400 MT/s
CPU 0 runs dpc3_traces/600.perlbench_s-210B.champsimtrace.xz
.xz
CPU 0 Bimodal branch predictor
BTB has LRU replacement policy
ITLB has LRU replacement policy
DTLB has LRU replacement policy
STLB has LRU replacement policy
L1I has LRU replacement policy
IP Table Entries: 256
L1D has LRU replacement policy
IP_Table L2 entries: 256
L2C has LRU replacement policy
LLC has LRU replacement policy
Heartbeat CPU 0 instructions: 10000002 cycles: 2958197 heartbeat IPC: 3.38044 cumulative IPC: 3.38044 (Simulation time: 0 hr 4 min 44 sec) 

Warmup complete CPU 0 instructions: 10000002 cycles: 2958197 (Simulation time: 0 hr 4 min 44 sec) 

Heartbeat CPU 0 instructions: 20000000 cycles: 19072315 heartbeat IPC: 0.620574 cumulative IPC: 0.620574 (Simulation time: 0 hr 8 min 57 sec) 
Heartbeat CPU 0 instructions: 30000002 cycles: 35193920 heartbeat IPC: 0.620286 cumulative IPC: 0.62043 (Simulation time: 0 hr 13 min 23 sec) 
Heartbeat CPU 0 instructions: 40000003 cycles: 50741207 heartbeat IPC: 0.643199 cumulative IPC: 0.627838 (Simulation time: 0 hr 18 min 10 sec) 
Heartbeat CPU 0 instructions: 50000002 cycles: 66823284 heartbeat IPC: 0.62181 cumulative IPC: 0.62632 (Simulation time: 0 hr 22 min 24 sec) 
Heartbeat CPU 0 instructions: 60000001 cycles: 82585853 heartbeat IPC: 0.634414 cumulative IPC: 0.627923 (Simulation time: 0 hr 26 min 14 sec) 
Finished CPU 0 instructions: 50000003 cycles: 79627682 cumulative IPC: 0.627922 (Simulation time: 0 hr 26 min 14 sec) 

ChampSim completed all CPUs

Region of Interest Statistics

CPU 0 cumulative IPC: 0.627922 instructions: 50000003 cycles: 79627682
ITLB TOTAL     ACCESS:    7280217  HIT:    7280117  MISS:        100  HIT %:    99.9986  MISS %: 0.00137359   MPKI: 0.002
ITLB LOAD TRANSLATION ACCESS:    7280217  HIT:    7280117  MISS:        100  HIT %:    99.9986  MISS %: 0.00137359   MPKI: 0.002
ITLB PREFETCH  REQUESTED:          0  ISSUED:          0  USEFUL:          0  USELESS:          0
ITLB USEFUL LOAD PREFETCHES:          0 PREFETCH ISSUED TO LOWER LEVEL:          0  ACCURACY: -nan
ITLB TIMELY PREFETCHES:          0 LATE PREFETCHES: 0 DROPPED PREFETCHES: 0
ITLB PREFETCHES SAME FILL-ORIGIN LEVEL: 0 DIFFERENT FILL-ORIGIN LEVEL: 0
ITLB AVERAGE MISS LATENCY: 9 cycles
ITLB RQ	ACCESS:    8280054	FORWARD:          0	MERGED:     999808	TO_CACHE:    7280246

DTLB TOTAL     ACCESS:   12979964  HIT:   12950154  MISS:      29810  HIT %:    99.7703  MISS %:   0.229662   MPKI: 0.5962
DTLB LOAD TRANSLATION ACCESS:   12979964  HIT:   12950154  MISS:      29810  HIT %:    99.7703  MISS %:   0.229662   MPKI: 0.5962
DTLB PREFETCH  REQUESTED:          0  ISSUED:          0  USEFUL:          0  USELESS:          0
DTLB USEFUL LOAD PREFETCHES:          0 PREFETCH ISSUED TO LOWER LEVEL:          0  ACCURACY: -nan
DTLB TIMELY PREFETCHES:          0 LATE PREFETCHES: 0 DROPPED PREFETCHES: 0
DTLB PREFETCHES SAME FILL-ORIGIN LEVEL: 0 DIFFERENT FILL-ORIGIN LEVEL: 0
DTLB AVERAGE MISS LATENCY: 10.3402 cycles
DTLB RQ	ACCESS:   19773534	FORWARD:          0	MERGED:    6793090	TO_CACHE:   12980444

STLB TOTAL     ACCESS:      99987  HIT:      99779  MISS:        208  HIT %:     99.792  MISS %:   0.208027   MPKI: 0.00416
STLB LOAD TRANSLATION ACCESS:      29910  HIT:      29702  MISS:        208  HIT %:    99.3046  MISS %:    0.69542   MPKI: 0.00416
STLB TRANSLATION FROM L1D PREFETCHER ACCESS:      70077  HIT:      70077  MISS:          0  HIT %:        100  MISS %:          0   MPKI: 0
STLB PREFETCH  REQUESTED:          0  ISSUED:          0  USEFUL:          0  USELESS:          0
STLB USEFUL LOAD PREFETCHES:          0 PREFETCH ISSUED TO LOWER LEVEL:          0  ACCURACY: -nan
STLB TIMELY PREFETCHES:          0 LATE PREFETCHES: 0 DROPPED PREFETCHES: 0
STLB PREFETCHES SAME FILL-ORIGIN LEVEL: 0 DIFFERENT FILL-ORIGIN LEVEL: 0
STLB AVERAGE MISS LATENCY: 189.293 cycles
STLB RQ	ACCESS:     119071	FORWARD:          0	MERGED:      19084	TO_CACHE:      99987

STLB Hit, L1D data hit: 0
STLB Hit, L2C data hit: 0
STLB Hit, LLC data hit: 0
STLB Hit, LLC data miss: 0
STLB STLB hints to L2: 0
L1D TOTAL     ACCESS:   19860652  HIT:   19847415  MISS:      13237  HIT %:    99.9334  MISS %:  0.0666494   MPKI: 0.26474
L1D LOAD      ACCESS:    8900155  HIT:    8896451  MISS:       3704  HIT %:    99.9584  MISS %:  0.0416173   MPKI: 0.07408
L1D RFO       ACCESS:   10871450  HIT:   10871085  MISS:        365  HIT %:    99.9966  MISS %: 0.00335742   MPKI: 0.0073
L1D PREFETCH  ACCESS:      89047  HIT:      79879  MISS:       9168  HIT %:    89.7043  MISS %:    10.2957   MPKI: 0.18336
L1D PREFETCH  REQUESTED:     178322  ISSUED:     178322  USEFUL:       3549  USELESS:       5582
L1D USEFUL LOAD PREFETCHES:       3549 PREFETCH ISSUED TO LOWER LEVEL:       9210  ACCURACY: 38.5342
L1D TIMELY PREFETCHES:       3549 LATE PREFETCHES: 42 DROPPED PREFETCHES: 0
L1D PREFETCHES SAME FILL-ORIGIN LEVEL: 9210 DIFFERENT FILL-ORIGIN LEVEL: 0
L1D AVERAGE MISS LATENCY: 164861 cycles
L1D RQ	ACCESS:   10949867	FORWARD:          0	MERGED:    1730352	TO_CACHE:    8900626
L1D WQ	ACCESS:   10962853	FORWARD:     318889	MERGED:      89945	TO_CACHE:   10872908
L1D PQ	ACCESS:      89161	FORWARD:          0	MERGED:          0	TO_CACHE:      89161

L1D UNIQUE REGIONS ACCESSED: 0
L1D REGIONS CONFLICTS: 0
L1D Cross Page Prefetch Requests: 0
L1D Same Page Prefetch Requests: 141796
L1D ROI Sum of L1D PQ occupancy: 1162335
L1D PREFETCHES PUSHED FROM L2C: 0
L1I TOTAL     ACCESS:    8279817  HIT:    8278900  MISS:        917  HIT %:    99.9889  MISS %:  0.0110751   MPKI: 0.01834
L1I LOAD      ACCESS:    8279817  HIT:    8278900  MISS:        917  HIT %:    99.9889  MISS %:  0.0110751   MPKI: 0.01834
L1I PREFETCH  REQUESTED:          0  ISSUED:          0  USEFUL:          0  USELESS:          0
L1I USEFUL LOAD PREFETCHES:          0 PREFETCH ISSUED TO LOWER LEVEL:          0  ACCURACY: -nan
L1I TIMELY PREFETCHES:          0 LATE PREFETCHES: 0 DROPPED PREFETCHES: 0
L1I PREFETCHES SAME FILL-ORIGIN LEVEL: 0 DIFFERENT FILL-ORIGIN LEVEL: 0
L1I AVERAGE MISS LATENCY: 25.157 cycles
L1I RQ	ACCESS:   13257068	FORWARD:          0	MERGED:    4977014	TO_CACHE:    8280054

BTB TOTAL     ACCESS:    4826234  HIT:    4547685  MISS:     278549  HIT %:    94.2284  MISS %:    5.77156   MPKI: 5.57098
BTB BRANCH_DIRECT_JUMP	ACCESS:    1010169  HIT:    1010072  MISS:         97
BTB BRANCH_INDIRECT	ACCESS:     372021  HIT:     106195  MISS:     265826
BTB BRANCH_CONDITIONAL	ACCESS:    2726771  HIT:    2726462  MISS:        309
BTB BRANCH_DIRECT_CALL	ACCESS:     342892  HIT:     342845  MISS:         47
BTB BRANCH_INDIRECT_CALL	ACCESS:      15744  HIT:       6985  MISS:       8759
BTB BRANCH_RETURN	ACCESS:     358637  HIT:     355126  MISS:       3511
BTB BRANCH_OTHER ACCESS:          0  HIT:          0  MISS:          0

L2C TOTAL     ACCESS:      15929  HIT:      12405  MISS:       3524  HIT %:    77.8768  MISS %:    22.1232   MPKI: 0.07048
L2C LOAD      ACCESS:       4575  HIT:       3243  MISS:       1332  HIT %:    70.8852  MISS %:    29.1148   MPKI: 0.02664
L2C DATA LOAD MPKI: 0.0254
L2C INSTRUCTION LOAD MPKI: 0.00124
L2C RFO       ACCESS:        365  HIT:        150  MISS:        215  HIT %:    41.0959  MISS %:    58.9041   MPKI: 0.0043
L2C PREFETCH  ACCESS:       9748  HIT:       7851  MISS:       1897  HIT %:    80.5396  MISS %:    19.4604   MPKI: 0.03794
L2C DATA PREFETCH MPKI: 0.03794
L2C INSTRUCTION PREFETCH MPKI: 0
L2C WRITEBACK ACCESS:       1029  HIT:       1029  MISS:          0  HIT %:        100  MISS %:          0   MPKI: 0
L2C LOAD TRANSLATION ACCESS:        212  HIT:        132  MISS:         80  HIT %:    62.2642  MISS %:    37.7358   MPKI: 0.0016
L2C PREFETCH  REQUESTED:        608  ISSUED:        608  USEFUL:        156  USELESS:        437
L2C USEFUL LOAD PREFETCHES:        156 PREFETCH ISSUED TO LOWER LEVEL:       1899  ACCURACY: 8.21485
L2C TIMELY PREFETCHES:        156 LATE PREFETCHES: 2 DROPPED PREFETCHES: 0
L2C PREFETCHES SAME FILL-ORIGIN LEVEL: 181 DIFFERENT FILL-ORIGIN LEVEL: 0
L2C AVERAGE MISS LATENCY: 163.851 cycles
L2C RQ	ACCESS:       5156	FORWARD:          0	MERGED:          0	TO_CACHE:       5152
L2C WQ	ACCESS:       1029	FORWARD:          4	MERGED:          0	TO_CACHE:       1029
L2C PQ	ACCESS:       9818	FORWARD:          0	MERGED:         45	TO_CACHE:       9773

L2C Instructions Evicting Data 15
L2C Translations Evicting Data 7
L2C Data Evicting Data 643
L2C Instructions Evicting Instructions 2
L2C Translations Evicting Instructions 2
L2C Data Evicting Instructions 157
L2C Instructions Evicting Translations 1
L2C Translations Evicting Translations 0
L2C Data Evicting Translations 30
L2C Dense regions hint from L2: 0
PSCL5 TOTAL     ACCESS:        208  HIT:        208  MISS:          0  HIT %:        100  MISS %:          0   MPKI: 0
PSCL5 LOAD TRANSLATION ACCESS:        208  HIT:        208  MISS:          0  HIT %:        100  MISS %:          0   MPKI: 0
PSCL5 PREFETCH  REQUESTED:          0  ISSUED:          0  USEFUL:          0  USELESS:          0
PSCL5 USEFUL LOAD PREFETCHES:          0 PREFETCH ISSUED TO LOWER LEVEL:          0  ACCURACY: -nan
PSCL5 TIMELY PREFETCHES:          0 LATE PREFETCHES: 0 DROPPED PREFETCHES: 0
PSCL5 PREFETCHES SAME FILL-ORIGIN LEVEL: 0 DIFFERENT FILL-ORIGIN LEVEL: 0

PSCL4 TOTAL     ACCESS:        208  HIT:        208  MISS:          0  HIT %:        100  MISS %:          0   MPKI: 0
PSCL4 LOAD TRANSLATION ACCESS:        208  HIT:        208  MISS:          0  HIT %:        100  MISS %:          0   MPKI: 0
PSCL4 PREFETCH  REQUESTED:          0  ISSUED:          0  USEFUL:          0  USELESS:          0
PSCL4 USEFUL LOAD PREFETCHES:          0 PREFETCH ISSUED TO LOWER LEVEL:          0  ACCURACY: -nan
PSCL4 TIMELY PREFETCHES:          0 LATE PREFETCHES: 0 DROPPED PREFETCHES: 0
PSCL4 PREFETCHES SAME FILL-ORIGIN LEVEL: 0 DIFFERENT FILL-ORIGIN LEVEL: 0

PSCL3 TOTAL     ACCESS:        208  HIT:        208  MISS:          0  HIT %:        100  MISS %:          0   MPKI: 0
PSCL3 LOAD TRANSLATION ACCESS:        208  HIT:        208  MISS:          0  HIT %:        100  MISS %:          0   MPKI: 0
PSCL3 PREFETCH  REQUESTED:          0  ISSUED:          0  USEFUL:          0  USELESS:          0
PSCL3 USEFUL LOAD PREFETCHES:          0 PREFETCH ISSUED TO LOWER LEVEL:          0  ACCURACY: -nan
PSCL3 TIMELY PREFETCHES:          0 LATE PREFETCHES: 0 DROPPED PREFETCHES: 0
PSCL3 PREFETCHES SAME FILL-ORIGIN LEVEL: 0 DIFFERENT FILL-ORIGIN LEVEL: 0

PSCL2 TOTAL     ACCESS:        208  HIT:        200  MISS:          8  HIT %:    96.1538  MISS %:    3.84615   MPKI: 0.00016
PSCL2 LOAD TRANSLATION ACCESS:        208  HIT:        200  MISS:          8  HIT %:    96.1538  MISS %:    3.84615   MPKI: 0.00016
PSCL2 PREFETCH  REQUESTED:          0  ISSUED:          0  USEFUL:          0  USELESS:          0
PSCL2 USEFUL LOAD PREFETCHES:          0 PREFETCH ISSUED TO LOWER LEVEL:          0  ACCURACY: -nan
PSCL2 TIMELY PREFETCHES:          0 LATE PREFETCHES: 0 DROPPED PREFETCHES: 0
PSCL2 PREFETCHES SAME FILL-ORIGIN LEVEL: 0 DIFFERENT FILL-ORIGIN LEVEL: 0

LLC TOTAL     ACCESS:       3585  HIT:         98  MISS:       3487  HIT %:    2.73361  MISS %:    97.2664   MPKI: 0.06974
LLC LOAD      ACCESS:       1330  HIT:         13  MISS:       1317  HIT %:   0.977444  MISS %:    99.0226   MPKI: 0.02634
LLC RFO       ACCESS:        215  HIT:          0  MISS:        215  HIT %:          0  MISS %:        100   MPKI: 0.0043
LLC PREFETCH  ACCESS:       1899  HIT:         23  MISS:       1876  HIT %:    1.21116  MISS %:    98.7888   MPKI: 0.03752
LLC WRITEBACK ACCESS:         61  HIT:         61  MISS:          0  HIT %:        100  MISS %:          0   MPKI: 0
LLC LOAD TRANSLATION ACCESS:         80  HIT:          1  MISS:         79  HIT %:       1.25  MISS %:      98.75   MPKI: 0.00158
LLC PREFETCH  REQUESTED:          0  ISSUED:          0  USEFUL:          0  USELESS:          0
LLC USEFUL LOAD PREFETCHES:          0 PREFETCH ISSUED TO LOWER LEVEL:       1876  ACCURACY: 0
LLC TIMELY PREFETCHES:          0 LATE PREFETCHES: 0 DROPPED PREFETCHES: 0
LLC PREFETCHES SAME FILL-ORIGIN LEVEL: 0 DIFFERENT FILL-ORIGIN LEVEL: 0
LLC AVERAGE MISS LATENCY: 134.809 cycles
LLC RQ	ACCESS:       1625	FORWARD:          0	MERGED:          0	TO_CACHE:       1625
LLC WQ	ACCESS:         61	FORWARD:          0	MERGED:          0	TO_CACHE:         61
LLC PQ	ACCESS:       1899	FORWARD:          0	MERGED:          0	TO_CACHE:       1899

LLC Dense regions hint to LLC: 0

RAW hits: 749352
Loads Generated: 11699224
Loads sent to L1D: 10949867
Stores Generated: 10962851
Stores sent to L1D: 10962853
Major fault: 0 Minor fault: 662
Allocated PAGES: 662

stream: 
stream:times selected: 849105
stream:pref_filled: 4708
stream:pref_useful: 1297
stream:pref_late: 36
stream:misses: 252
stream:misses_by_poll: 0

CS: 
CS:times selected: 16955
CS:pref_filled: 5540
CS:pref_useful: 3790
CS:pref_late: 4
CS:misses: 572
CS:misses_by_poll: 2

CPLX: 
CPLX:times selected: 831997
CPLX:pref_filled: 3946
CPLX:pref_useful: 238
CPLX:pref_late: 4
CPLX:misses: 1919
CPLX:misses_by_poll: 0

NL_L1: 
NL:times selected: 207
NL:pref_filled: 30
NL:pref_useful: 7
NL:pref_late: 0
NL:misses: 11
NL:misses_by_poll: 0

total selections: 1698264
total_filled: 9168
total_useful: 3549
total_late: 48
total_polluted: 2
total_misses_after_warmup: 4176
conflicts: 240157
Degree Incremented Times: 0
Degree Decremented Times: 148100

L1 IP Table Write Accesses: 7913419
L1 IP Table Read Accesses: 7673262
L1 RST Write Accesses: 708662
L1 RST Read Accesses: 1417324
L1 CSPT Write Accesses: 708662
L1 CSPT Read Accesses: 1404784
L1 RR Filter Tag Write Accesses: 89161
L1 RR Filter Tag Read Accesses: 22921349
L1 IP Table Tag Write Accesses: 8900627
L1 IP Table Tag Read Accesses: 8900627
L1 RST Tag Write Accesses: 0
L1 RST Tag Read Accesses: 9499493
L1 RR Filter Write Accesses: 0
L1 RR Filter Read Accesses: 1281360
test: 48587
L2 IP Table Read Accesses: 25026
L2 IP Table Write Accesses: 22110
L2 IP Table Tag Read Accesses: 12821
L2 IP Table Tag Write Accesses: 12821

DRAM Statistics
 CHANNEL 0
 RQ ROW_BUFFER_HIT:       1318  ROW_BUFFER_MISS:       2169
 DBUS_CONGESTED:          0
 WQ ROW_BUFFER_HIT:          0  ROW_BUFFER_MISS:          0  FULL:          0

 AVG_CONGESTED_CYCLE: -
 All warmup complete: 2
Channel 0 Bank busy for read cycles: 0
Channel 0 Bank busy for write cycles: 0
Channel 0
Rank 0
0banks busy for read cycles: 79359711
0banks busy for write cycles: 0
1banks busy for read cycles: 185442
1banks busy for write cycles: 0
2banks busy for read cycles: 59063
2banks busy for write cycles: 0
3banks busy for read cycles: 15047
3banks busy for write cycles: 0
4banks busy for read cycles: 3813
4banks busy for write cycles: 0
5banks busy for read cycles: 2035
5banks busy for write cycles: 0
6banks busy for read cycles: 1307
6banks busy for write cycles: 0
7banks busy for read cycles: 848
7banks busy for write cycles: 0
8banks busy for read cycles: 417
8banks busy for write cycles: 0

CPU 0 Branch Prediction Accuracy: 97.5923% MPKI: 3.3351 Average ROB Occupancy at Mispredict: 37.9026
Branch types
NOT_BRANCH: 43073852 86.1477%
BRANCH_DIRECT_JUMP: 1010169 2.02034%
BRANCH_INDIRECT: 372021 0.744042%
BRANCH_CONDITIONAL: 4826336 9.65267%
BRANCH_DIRECT_CALL: 342892 0.685784%
BRANCH_INDIRECT_CALL: 15744 0.031488%
BRANCH_RETURN: 358637 0.717274%
BRANCH_OTHER: 0 0%

@Sumon_Early_L1D       492       212       205       458       146       419       413       591       309       755       879       462      5341
@Sumon_Late_L1D        30        18         0         0         0         0         0         0         0         0         0         0        48
@Sumon_Early_stream_L1D       322       126        46        72        40       135        81        85       156        54        37       143      1297
@Sumon_Early_CS_L1D       149        65       143       376        97       261       319       494       142       686       811       247      3790
@Sumon_Early_CPLX_L1D        17        18        16         9         8        23        11        12         8        14        30        72       238
@Sumon_Late_stream_L1D        20        16         0         0         0         0         0         0         0         0         0         0        36
@Sumon_Late_CS_L1D         4         0         0         0         0         0         0         0         0         0         0         0         4
@Sumon_Late_CPLX_L1D         3         1         0         0         0         0         0         0         0         0         0         0         4
@Sumon_early_total_L1D      1297      3790       238      5341
@Sumon_late_total_L1D        36         4         4     48
@Sumon_Early_L2C        23         8        13         5         6         7         1         1        20         8        11       215       318
@Sumon_Late_L2C         3         0         0         0         0         0         0         0         0         0         0         0         3
@Sumon_Early_stream_L2C         0         0         0         0         0         0         0         0         4         3         5       110       122
@Sumon_Early_CS_L2C         0         0         0         0         0         0         0         0         0         0         2        70        72
@Sumon_Early_CPLX_L2C         0         0         0         0         0         0         0         0         1         1         4        22        28
@Sumon_Late_stream_L2C         0         0         0         0         0         0         0         0         0         0         0         0         0
@Sumon_Late_CS_L2C         0         0         0         0         0         0         0         0         0         0         0         0         0
@Sumon_Late_CPLX_L2C         0         0         0         0         0         0         0         0         0         0         0         0         0
@Sumon_early_total_L2C       122        72        28       318
@Sumon_late_total_L2C         0         0         0     3
DRAM PAGES: 1048576
Allocated PAGES: 662
