
*** ChampSim Multicore Out-of-Order Simulator ***

Warmup Instructions: 10000000
Simulation Instructions: 50000000
Number of CPUs: 1
LLC sets: 2048
LLC ways: 16
Off-chip DRAM Size: 4096 MB Channels: 1 Width: 64-bit Data Rate: 6400 MT/s
CPU 0 runs dpc3_traces/619.lbm_s-2677B.champsimtrace.xz
.xz
CPU 0 Bimodal branch predictor
BTB has LRU replacement policy
ITLB has LRU replacement policy
DTLB has LRU replacement policy
STLB has LRU replacement policy
L1I has LRU replacement policy
IP Table Entries: 256
L1D has LRU replacement policy
IP_Table L2 entries: 256
L2C has LRU replacement policy
LLC has LRU replacement policy
Heartbeat CPU 0 instructions: 10000001 cycles: 2911371 heartbeat IPC: 3.43481 cumulative IPC: 3.43481 (Simulation time: 0 hr 3 min 52 sec) 

Warmup complete CPU 0 instructions: 10000001 cycles: 2911371 (Simulation time: 0 hr 3 min 52 sec) 

Heartbeat CPU 0 instructions: 20000000 cycles: 21855636 heartbeat IPC: 0.527864 cumulative IPC: 0.527864 (Simulation time: 0 hr 12 min 55 sec) 
Heartbeat CPU 0 instructions: 30000003 cycles: 41305053 heartbeat IPC: 0.514154 cumulative IPC: 0.520919 (Simulation time: 0 hr 21 min 16 sec) 
Heartbeat CPU 0 instructions: 40000001 cycles: 60313857 heartbeat IPC: 0.526072 cumulative IPC: 0.522625 (Simulation time: 0 hr 25 min 14 sec) 
Heartbeat CPU 0 instructions: 50000002 cycles: 79779086 heartbeat IPC: 0.513737 cumulative IPC: 0.520375 (Simulation time: 0 hr 28 min 30 sec) 
Heartbeat CPU 0 instructions: 60000001 cycles: 99128069 heartbeat IPC: 0.516823 cumulative IPC: 0.51966 (Simulation time: 0 hr 30 min 56 sec) 
Finished CPU 0 instructions: 50000000 cycles: 96216698 cumulative IPC: 0.51966 (Simulation time: 0 hr 30 min 56 sec) 

ChampSim completed all CPUs

Region of Interest Statistics

CPU 0 cumulative IPC: 0.51966 instructions: 50000000 cycles: 96216698
ITLB TOTAL     ACCESS:    6745344  HIT:    6745344  MISS:          0  HIT %:        100  MISS %:          0   MPKI: 0
ITLB LOAD TRANSLATION ACCESS:    6745344  HIT:    6745344  MISS:          0  HIT %:        100  MISS %:          0   MPKI: 0
ITLB PREFETCH  REQUESTED:          0  ISSUED:          0  USEFUL:          0  USELESS:          0
ITLB USEFUL LOAD PREFETCHES:          0 PREFETCH ISSUED TO LOWER LEVEL:          0  ACCURACY: -nan
ITLB TIMELY PREFETCHES:          0 LATE PREFETCHES: 0 DROPPED PREFETCHES: 0
ITLB PREFETCHES SAME FILL-ORIGIN LEVEL: 0 DIFFERENT FILL-ORIGIN LEVEL: 0
ITLB AVERAGE MISS LATENCY: -nan cycles
ITLB RQ	ACCESS:    8693838	FORWARD:          0	MERGED:    1948495	TO_CACHE:    6745343

DTLB TOTAL     ACCESS:    9162175  HIT:    9094159  MISS:      68016  HIT %:    99.2576  MISS %:   0.742356   MPKI: 1.36032
DTLB LOAD TRANSLATION ACCESS:    9162175  HIT:    9094159  MISS:      68016  HIT %:    99.2576  MISS %:   0.742356   MPKI: 1.36032
DTLB PREFETCH  REQUESTED:          0  ISSUED:          0  USEFUL:          0  USELESS:          0
DTLB USEFUL LOAD PREFETCHES:          0 PREFETCH ISSUED TO LOWER LEVEL:          0  ACCURACY: -nan
DTLB TIMELY PREFETCHES:          0 LATE PREFETCHES: 0 DROPPED PREFETCHES: 0
DTLB PREFETCHES SAME FILL-ORIGIN LEVEL: 0 DIFFERENT FILL-ORIGIN LEVEL: 0
DTLB AVERAGE MISS LATENCY: 111.883 cycles
DTLB RQ	ACCESS:   12711403	FORWARD:          0	MERGED:    3523598	TO_CACHE:    9187805

STLB TOTAL     ACCESS:     426824  HIT:     389916  MISS:      36908  HIT %:    91.3529  MISS %:    8.64712   MPKI: 0.73816
STLB LOAD TRANSLATION ACCESS:      68016  HIT:      31108  MISS:      36908  HIT %:    45.7363  MISS %:    54.2637   MPKI: 0.73816
STLB TRANSLATION FROM L1D PREFETCHER ACCESS:     358808  HIT:     358808  MISS:          0  HIT %:        100  MISS %:          0   MPKI: 0
STLB PREFETCH  REQUESTED:          0  ISSUED:          0  USEFUL:          0  USELESS:          0
STLB USEFUL LOAD PREFETCHES:          0 PREFETCH ISSUED TO LOWER LEVEL:          0  ACCURACY: -nan
STLB TIMELY PREFETCHES:          0 LATE PREFETCHES: 0 DROPPED PREFETCHES: 0
STLB PREFETCHES SAME FILL-ORIGIN LEVEL: 0 DIFFERENT FILL-ORIGIN LEVEL: 0
STLB AVERAGE MISS LATENCY: 187.751 cycles
STLB RQ	ACCESS:     674789	FORWARD:          0	MERGED:     247965	TO_CACHE:     426824

STLB Hit, L1D data hit: 0
STLB Hit, L2C data hit: 0
STLB Hit, LLC data hit: 0
STLB Hit, LLC data miss: 0
STLB STLB hints to L2: 0
L1D TOTAL     ACCESS:   13088805  HIT:    9192456  MISS:    3896349  HIT %:    70.2314  MISS %:    29.7686   MPKI: 77.927
L1D LOAD      ACCESS:    4457865  HIT:    4258768  MISS:     199097  HIT %:    95.5338  MISS %:     4.4662   MPKI: 3.98194
L1D RFO       ACCESS:    8133449  HIT:    4827498  MISS:    3305951  HIT %:    59.3536  MISS %:    40.6464   MPKI: 66.119
L1D PREFETCH  ACCESS:     497491  HIT:     106190  MISS:     391301  HIT %:    21.3451  MISS %:    78.6549   MPKI: 7.82602
L1D PREFETCH  REQUESTED:    1237229  ISSUED:    1213560  USEFUL:     391290  USELESS:          0
L1D USEFUL LOAD PREFETCHES:     391290 PREFETCH ISSUED TO LOWER LEVEL:     428849  ACCURACY: 91.2419
L1D TIMELY PREFETCHES:     391290 LATE PREFETCHES: 37350 DROPPED PREFETCHES: 0
L1D PREFETCHES SAME FILL-ORIGIN LEVEL: 428849 DIFFERENT FILL-ORIGIN LEVEL: 0
L1D AVERAGE MISS LATENCY: 490388 cycles
L1D RQ	ACCESS:   12500384	FORWARD:          0	MERGED:    5832882	TO_CACHE:    4514128
L1D WQ	ACCESS:    9189247	FORWARD:    2153374	MERGED:     991972	TO_CACHE:    8197275
L1D PQ	ACCESS:     606787	FORWARD:          0	MERGED:         14	TO_CACHE:     606773

L1D UNIQUE REGIONS ACCESSED: 0
L1D REGIONS CONFLICTS: 0
L1D Cross Page Prefetch Requests: 0
L1D Same Page Prefetch Requests: 734803
L1D ROI Sum of L1D PQ occupancy: 524817049
L1D PREFETCHES PUSHED FROM L2C: 0
L1I TOTAL     ACCESS:    8693839  HIT:    8693839  MISS:          0  HIT %:        100  MISS %:          0   MPKI: 0
L1I LOAD      ACCESS:    8693839  HIT:    8693839  MISS:          0  HIT %:        100  MISS %:          0   MPKI: 0
L1I PREFETCH  REQUESTED:          0  ISSUED:          0  USEFUL:          0  USELESS:          0
L1I USEFUL LOAD PREFETCHES:          0 PREFETCH ISSUED TO LOWER LEVEL:          0  ACCURACY: -nan
L1I TIMELY PREFETCHES:          0 LATE PREFETCHES: 0 DROPPED PREFETCHES: 0
L1I PREFETCHES SAME FILL-ORIGIN LEVEL: 0 DIFFERENT FILL-ORIGIN LEVEL: 0
L1I AVERAGE MISS LATENCY: -nan cycles
L1I RQ	ACCESS:   12525074	FORWARD:          0	MERGED:    3831236	TO_CACHE:    8693838

BTB TOTAL     ACCESS:     892808  HIT:     892802  MISS:          6  HIT %:    99.9993  MISS %: 0.000672037   MPKI: 0.00012
BTB BRANCH_DIRECT_JUMP	ACCESS:     143919  HIT:     143918  MISS:          1
BTB BRANCH_INDIRECT	ACCESS:          0  HIT:          0  MISS:          0
BTB BRANCH_CONDITIONAL	ACCESS:     748889  HIT:     748884  MISS:          5
BTB BRANCH_DIRECT_CALL	ACCESS:          0  HIT:          0  MISS:          0
BTB BRANCH_INDIRECT_CALL	ACCESS:          0  HIT:          0  MISS:          0
BTB BRANCH_RETURN	ACCESS:          0  HIT:          0  MISS:          0
BTB BRANCH_OTHER ACCESS:          0  HIT:          0  MISS:          0

L2C TOTAL     ACCESS:    7865099  HIT:    5484165  MISS:    2380934  HIT %:    69.7279  MISS %:    30.2721   MPKI: 47.6187
L2C LOAD      ACCESS:     161747  HIT:      84447  MISS:      77300  HIT %:    52.2093  MISS %:    47.7907   MPKI: 1.546
L2C DATA LOAD MPKI: 1.546
L2C INSTRUCTION LOAD MPKI: 0
L2C RFO       ACCESS:    3305948  HIT:    1520175  MISS:    1785773  HIT %:     45.983  MISS %:     54.017   MPKI: 35.7155
L2C PREFETCH  ACCESS:    1054535  HIT:     541446  MISS:     513089  HIT %:    51.3445  MISS %:    48.6555   MPKI: 10.2618
L2C DATA PREFETCH MPKI: 10.2618
L2C INSTRUCTION PREFETCH MPKI: 0
L2C WRITEBACK ACCESS:    3305959  HIT:    3305849  MISS:        110  HIT %:    99.9967  MISS %: 0.00332732   MPKI: 0.0022
L2C LOAD TRANSLATION ACCESS:      36910  HIT:      32248  MISS:       4662  HIT %:    87.3693  MISS %:    12.6307   MPKI: 0.09324
L2C PREFETCH  REQUESTED:     958709  ISSUED:     958680  USEFUL:      84441  USELESS:     428790
L2C USEFUL LOAD PREFETCHES:      84441 PREFETCH ISSUED TO LOWER LEVEL:     526376  ACCURACY: 16.042
L2C TIMELY PREFETCHES:      84441 LATE PREFETCHES: 13285 DROPPED PREFETCHES: 0
L2C PREFETCHES SAME FILL-ORIGIN LEVEL: 345669 DIFFERENT FILL-ORIGIN LEVEL: 0
L2C AVERAGE MISS LATENCY: 638.743 cycles
L2C RQ	ACCESS:    3504616	FORWARD:          0	MERGED:          0	TO_CACHE:    3504614
L2C WQ	ACCESS:    3305959	FORWARD:          2	MERGED:          0	TO_CACHE:    3305959
L2C PQ	ACCESS:    1387333	FORWARD:          0	MERGED:     177168	TO_CACHE:    1210165

L2C Instructions Evicting Data 0
L2C Translations Evicting Data 4662
L2C Data Evicting Data 2371503
L2C Instructions Evicting Instructions 0
L2C Translations Evicting Instructions 0
L2C Data Evicting Instructions 0
L2C Instructions Evicting Translations 0
L2C Translations Evicting Translations 0
L2C Data Evicting Translations 4659
L2C Dense regions hint from L2: 0
PSCL5 TOTAL     ACCESS:      36908  HIT:      36908  MISS:          0  HIT %:        100  MISS %:          0   MPKI: 0
PSCL5 LOAD TRANSLATION ACCESS:      36908  HIT:      36908  MISS:          0  HIT %:        100  MISS %:          0   MPKI: 0
PSCL5 PREFETCH  REQUESTED:          0  ISSUED:          0  USEFUL:          0  USELESS:          0
PSCL5 USEFUL LOAD PREFETCHES:          0 PREFETCH ISSUED TO LOWER LEVEL:          0  ACCURACY: -nan
PSCL5 TIMELY PREFETCHES:          0 LATE PREFETCHES: 0 DROPPED PREFETCHES: 0
PSCL5 PREFETCHES SAME FILL-ORIGIN LEVEL: 0 DIFFERENT FILL-ORIGIN LEVEL: 0

PSCL4 TOTAL     ACCESS:      36908  HIT:      36908  MISS:          0  HIT %:        100  MISS %:          0   MPKI: 0
PSCL4 LOAD TRANSLATION ACCESS:      36908  HIT:      36908  MISS:          0  HIT %:        100  MISS %:          0   MPKI: 0
PSCL4 PREFETCH  REQUESTED:          0  ISSUED:          0  USEFUL:          0  USELESS:          0
PSCL4 USEFUL LOAD PREFETCHES:          0 PREFETCH ISSUED TO LOWER LEVEL:          0  ACCURACY: -nan
PSCL4 TIMELY PREFETCHES:          0 LATE PREFETCHES: 0 DROPPED PREFETCHES: 0
PSCL4 PREFETCHES SAME FILL-ORIGIN LEVEL: 0 DIFFERENT FILL-ORIGIN LEVEL: 0

PSCL3 TOTAL     ACCESS:      36908  HIT:      36908  MISS:          0  HIT %:        100  MISS %:          0   MPKI: 0
PSCL3 LOAD TRANSLATION ACCESS:      36908  HIT:      36908  MISS:          0  HIT %:        100  MISS %:          0   MPKI: 0
PSCL3 PREFETCH  REQUESTED:          0  ISSUED:          0  USEFUL:          0  USELESS:          0
PSCL3 USEFUL LOAD PREFETCHES:          0 PREFETCH ISSUED TO LOWER LEVEL:          0  ACCURACY: -nan
PSCL3 TIMELY PREFETCHES:          0 LATE PREFETCHES: 0 DROPPED PREFETCHES: 0
PSCL3 PREFETCHES SAME FILL-ORIGIN LEVEL: 0 DIFFERENT FILL-ORIGIN LEVEL: 0

PSCL2 TOTAL     ACCESS:      36908  HIT:      36870  MISS:         38  HIT %:     99.897  MISS %:   0.102959   MPKI: 0.00076
PSCL2 LOAD TRANSLATION ACCESS:      36908  HIT:      36870  MISS:         38  HIT %:     99.897  MISS %:   0.102959   MPKI: 0.00076
PSCL2 PREFETCH  REQUESTED:          0  ISSUED:          0  USEFUL:          0  USELESS:          0
PSCL2 USEFUL LOAD PREFETCHES:          0 PREFETCH ISSUED TO LOWER LEVEL:          0  ACCURACY: -nan
PSCL2 TIMELY PREFETCHES:          0 LATE PREFETCHES: 0 DROPPED PREFETCHES: 0
PSCL2 PREFETCHES SAME FILL-ORIGIN LEVEL: 0 DIFFERENT FILL-ORIGIN LEVEL: 0

LLC TOTAL     ACCESS:    4167036  HIT:    1800930  MISS:    2366106  HIT %:    43.2185  MISS %:    56.7815   MPKI: 47.3221
LLC LOAD      ACCESS:      64015  HIT:         12  MISS:      64003  HIT %:  0.0187456  MISS %:    99.9813   MPKI: 1.28006
LLC RFO       ACCESS:    1785757  HIT:      14781  MISS:    1770976  HIT %:   0.827716  MISS %:    99.1723   MPKI: 35.4195
LLC PREFETCH  ACCESS:     526374  HIT:          0  MISS:     526374  HIT %:          0  MISS %:        100   MPKI: 10.5275
LLC WRITEBACK ACCESS:    1786228  HIT:    1786137  MISS:         91  HIT %:    99.9949  MISS %: 0.00509453   MPKI: 0.00182
LLC LOAD TRANSLATION ACCESS:       4662  HIT:          0  MISS:       4662  HIT %:          0  MISS %:        100   MPKI: 0.09324
LLC PREFETCH  REQUESTED:          0  ISSUED:          0  USEFUL:          0  USELESS:     527132
LLC USEFUL LOAD PREFETCHES:          0 PREFETCH ISSUED TO LOWER LEVEL:     526375  ACCURACY: 0
LLC TIMELY PREFETCHES:          0 LATE PREFETCHES: 0 DROPPED PREFETCHES: 0
LLC PREFETCHES SAME FILL-ORIGIN LEVEL: 0 DIFFERENT FILL-ORIGIN LEVEL: 0
LLC AVERAGE MISS LATENCY: 614.644 cycles
LLC RQ	ACCESS:    1854459	FORWARD:          0	MERGED:          0	TO_CACHE:    1854443
LLC WQ	ACCESS:    1786228	FORWARD:         16	MERGED:          0	TO_CACHE:    1786228
LLC PQ	ACCESS:     526376	FORWARD:          0	MERGED:          0	TO_CACHE:     526376

LLC Dense regions hint to LLC: 0

RAW hits: 521202
Loads Generated: 13021587
Loads sent to L1D: 12500384
Stores Generated: 9189225
Stores sent to L1D: 9189247
Major fault: 0 Minor fault: 25372
Allocated PAGES: 25372

stream: 
stream:times selected: 2233901
stream:pref_filled: 82481
stream:pref_useful: 82481
stream:pref_late: 13903
stream:misses: 33679
stream:misses_by_poll: 0

CS: 
CS:times selected: 388423
CS:pref_filled: 217669
CS:pref_useful: 217664
CS:pref_late: 8989
CS:misses: 66823
CS:misses_by_poll: 1363

CPLX: 
CPLX:times selected: 1843100
CPLX:pref_filled: 203680
CPLX:pref_useful: 203667
CPLX:pref_late: 15712
CPLX:misses: 152954
CPLX:misses_by_poll: 1192

NL_L1: 
NL:times selected: 1014
NL:pref_filled: 49
NL:pref_useful: 49
NL:pref_late: 24
NL:misses: 176
NL:misses_by_poll: 0

total selections: 4466438
total_filled: 391301
total_useful: 391290
total_late: 39876
total_polluted: 2555
total_misses_after_warmup: 255359
conflicts: 81427
Degree Incremented Times: 60776
Degree Decremented Times: 0

L1 IP Table Write Accesses: 4044644
L1 IP Table Read Accesses: 3963217
L1 RST Write Accesses: 1841228
L1 RST Read Accesses: 3682456
L1 CSPT Write Accesses: 1841228
L1 CSPT Read Accesses: 5881457
L1 RR Filter Tag Write Accesses: 630456
L1 RR Filter Tag Read Accesses: 302519888
L1 IP Table Tag Write Accesses: 4514127
L1 IP Table Tag Read Accesses: 4514127
L1 RST Tag Write Accesses: 0
L1 RST Tag Read Accesses: 16686969
L1 RR Filter Write Accesses: 0
L1 RR Filter Read Accesses: 13583992
test: 348980
L2 IP Table Read Accesses: 1038785
L2 IP Table Write Accesses: 877131
L2 IP Table Tag Read Accesses: 519531
L2 IP Table Tag Write Accesses: 519531

DRAM Statistics
 CHANNEL 0
 RQ ROW_BUFFER_HIT:     236816  ROW_BUFFER_MISS:    2129199
 DBUS_CONGESTED:          0
 WQ ROW_BUFFER_HIT:     380476  ROW_BUFFER_MISS:    1390478  FULL:          0

 AVG_CONGESTED_CYCLE: -
 All warmup complete: 2
Channel 0 Bank busy for read cycles: 0
Channel 0 Bank busy for write cycles: 0
Channel 0
Rank 0
0banks busy for read cycles: 8225
0banks busy for write cycles: 0
1banks busy for read cycles: 571758
1banks busy for write cycles: 173065
2banks busy for read cycles: 940240
2banks busy for write cycles: 173063
3banks busy for read cycles: 1651213
3banks busy for write cycles: 173063
4banks busy for read cycles: 2629545
4banks busy for write cycles: 173060
5banks busy for read cycles: 7148958
5banks busy for write cycles: 173060
6banks busy for read cycles: 11029978
6banks busy for write cycles: 173204
7banks busy for read cycles: 15897771
7banks busy for write cycles: 1947116
8banks busy for read cycles: 19091864
8banks busy for write cycles: 34261516

CPU 0 Branch Prediction Accuracy: 94.966% MPKI: 0.89888 Average ROB Occupancy at Mispredict: 161.393
Branch types
NOT_BRANCH: 49106854 98.2137%
BRANCH_DIRECT_JUMP: 143919 0.287838%
BRANCH_INDIRECT: 0 0%
BRANCH_CONDITIONAL: 748891 1.49778%
BRANCH_DIRECT_CALL: 0 0%
BRANCH_INDIRECT_CALL: 0 0%
BRANCH_RETURN: 0 0%
BRANCH_OTHER: 0 0%

@Sumon_Early_L1D     63783     51186     56355     70628     41088    166894     47269      6708         9         0         0         0    503920
@Sumon_Late_L1D      9863      6046     14013      5614      2246      2074        20         0         0         0         0         0     39876
@Sumon_Early_stream_L1D     20884     13493     11829     14603      6965     14644        63         0         0         0         0         0     82481
@Sumon_Early_CS_L1D     20174     20559     19192     29696     16274     91301     20432        36         0         0         0         0    217664
@Sumon_Early_CPLX_L1D     22690     17103     25317     26322     17845     60936     26773      6672         9         0         0         0    203667
@Sumon_Late_stream_L1D      3956      2140      4454      1827       750       769         7         0         0         0         0         0     13903
@Sumon_Late_CS_L1D      1905      1305      2908      1346       724       792         9         0         0         0         0         0      8989
@Sumon_Late_CPLX_L1D      2748      2597      6643      2437       771       512         4         0         0         0         0         0     15712
@Sumon_early_total_L1D     82481    217664    203667    503920
@Sumon_late_total_L1D     13903      8989     15712     39876
@Sumon_Early_L2C      7186      3966      7778     11418      5226     37215     11722        19         0         0         0         0     84530
@Sumon_Late_L2C      1831      2931      4294      2381       899       938        11         0         0         0         0         0     13285
@Sumon_Early_stream_L2C      5802      3158      5591      7313      2526      4603        14         0         0         0         0         0     29007
@Sumon_Early_CS_L2C      1381       806      2185      4104      2700     32604     11706        19         0         0         0         0     55505
@Sumon_Early_CPLX_L2C         0         0         0         0         0         0         0         0         0         0         0         0         0
@Sumon_Late_stream_L2C      1375      2279      3482      1726       583       582         7         0         0         0         0         0     10034
@Sumon_Late_CS_L2C       377       651       810       655       316       356         4         0         0         0         0         0      3169
@Sumon_Late_CPLX_L2C         0         0         0         0         0         0         0         0         0         0         0         0         0
@Sumon_early_total_L2C     29007     55505         0     84530
@Sumon_late_total_L2C     10034      3169         0     13285
DRAM PAGES: 1048576
Allocated PAGES: 25372
