
*** ChampSim Multicore Out-of-Order Simulator ***

Warmup Instructions: 10000000
Simulation Instructions: 50000000
Number of CPUs: 1
LLC sets: 2048
LLC ways: 16
Off-chip DRAM Size: 4096 MB Channels: 1 Width: 64-bit Data Rate: 6400 MT/s
CPU 0 runs traces/SPEC2017/607.cactuBSSN_s-2421B.champsimtrace.xz
.xz
CPU 0 Bimodal branch predictor
BTB has LRU replacement policy
ITLB has LRU replacement policy
DTLB has LRU replacement policy
STLB has LRU replacement policy
L1I has LRU replacement policy
IP Table Entries: 256
L1D has LRU replacement policy
IP_Table L2 entries: 256
L2C has LRU replacement policy
LLC has LRU replacement policy
Heartbeat CPU 0 instructions: 10000002 cycles: 3586561 heartbeat IPC: 2.78819 cumulative IPC: 2.78819 (Simulation time: 0 hr 30 min 22 sec) 

Warmup complete CPU 0 instructions: 10000002 cycles: 3586561 (Simulation time: 0 hr 30 min 22 sec) 

Heartbeat CPU 0 instructions: 20000001 cycles: 14609995 heartbeat IPC: 0.907158 cumulative IPC: 0.907158 (Simulation time: 0 hr 51 min 31 sec) 
Heartbeat CPU 0 instructions: 30000000 cycles: 25605750 heartbeat IPC: 0.909442 cumulative IPC: 0.908299 (Simulation time: 1 hr 12 min 15 sec) 
Heartbeat CPU 0 instructions: 40000001 cycles: 36572214 heartbeat IPC: 0.911871 cumulative IPC: 0.909486 (Simulation time: 1 hr 33 min 35 sec) 
Heartbeat CPU 0 instructions: 50000000 cycles: 47557809 heartbeat IPC: 0.910283 cumulative IPC: 0.909685 (Simulation time: 1 hr 53 min 30 sec) 
Heartbeat CPU 0 instructions: 60000003 cycles: 58589934 heartbeat IPC: 0.906444 cumulative IPC: 0.909035 (Simulation time: 2 hr 7 min 51 sec) 
Finished CPU 0 instructions: 50000001 cycles: 55003373 cumulative IPC: 0.909035 (Simulation time: 2 hr 7 min 51 sec) 

ChampSim completed all CPUs

Region of Interest Statistics

CPU 0 cumulative IPC: 0.909035 instructions: 50000001 cycles: 55003373
ITLB TOTAL     ACCESS:    6915938  HIT:    6915878  MISS:         60  HIT %:    99.9991  MISS %: 0.000867561   MPKI: 0.0012
ITLB LOAD TRANSLATION ACCESS:    6915938  HIT:    6915878  MISS:         60  HIT %:    99.9991  MISS %: 0.000867561   MPKI: 0.0012
ITLB PREFETCH  REQUESTED:          0  ISSUED:          0  USEFUL:          0  USELESS:          0
ITLB USEFUL LOAD PREFETCHES:          0 PREFETCH ISSUED TO LOWER LEVEL:          0  ACCURACY: -nan
ITLB TIMELY PREFETCHES:          0 LATE PREFETCHES: 0 DROPPED PREFETCHES: 0
ITLB PREFETCHES SAME FILL-ORIGIN LEVEL: 0 DIFFERENT FILL-ORIGIN LEVEL: 0
ITLB AVERAGE MISS LATENCY: 370.083 cycles
ITLB RQ	ACCESS:    8511047	FORWARD:          0	MERGED:    1595097	TO_CACHE:    6915950

DTLB TOTAL     ACCESS:   13507253  HIT:   11288270  MISS:    2218983  HIT %:    83.5719  MISS %:    16.4281   MPKI: 44.3797
DTLB LOAD TRANSLATION ACCESS:   13507253  HIT:   11288270  MISS:    2218983  HIT %:    83.5719  MISS %:    16.4281   MPKI: 44.3797
DTLB PREFETCH  REQUESTED:          0  ISSUED:          0  USEFUL:          0  USELESS:          0
DTLB USEFUL LOAD PREFETCHES:          0 PREFETCH ISSUED TO LOWER LEVEL:          0  ACCURACY: -nan
DTLB TIMELY PREFETCHES:          0 LATE PREFETCHES: 0 DROPPED PREFETCHES: 0
DTLB PREFETCHES SAME FILL-ORIGIN LEVEL: 0 DIFFERENT FILL-ORIGIN LEVEL: 0
DTLB AVERAGE MISS LATENCY: 10.1548 cycles
DTLB RQ	ACCESS:   18952844	FORWARD:          0	MERGED:    5235474	TO_CACHE:   13717370

STLB TOTAL     ACCESS:    2246886  HIT:    2243828  MISS:       3058  HIT %:    99.8639  MISS %:   0.136099   MPKI: 0.06116
STLB LOAD TRANSLATION ACCESS:    2219043  HIT:    2215985  MISS:       3058  HIT %:    99.8622  MISS %:   0.137807   MPKI: 0.06116
STLB TRANSLATION FROM L1D PREFETCHER ACCESS:      27843  HIT:      27843  MISS:          0  HIT %:        100  MISS %:          0   MPKI: 0
STLB PREFETCH  REQUESTED:          0  ISSUED:          0  USEFUL:          0  USELESS:          0
STLB USEFUL LOAD PREFETCHES:          0 PREFETCH ISSUED TO LOWER LEVEL:          0  ACCURACY: -nan
STLB TIMELY PREFETCHES:          0 LATE PREFETCHES: 0 DROPPED PREFETCHES: 0
STLB PREFETCHES SAME FILL-ORIGIN LEVEL: 0 DIFFERENT FILL-ORIGIN LEVEL: 0
STLB AVERAGE MISS LATENCY: 598.38 cycles
STLB RQ	ACCESS:    2248176	FORWARD:          0	MERGED:       1290	TO_CACHE:    2246886

STLB Hit, L1D data hit: 0
STLB Hit, L2C data hit: 0
STLB Hit, LLC data hit: 0
STLB Hit, LLC data miss: 0
STLB STLB hints to L2: 0
L1D TOTAL     ACCESS:   18860331  HIT:   14820426  MISS:    4039905  HIT %:    78.5799  MISS %:    21.4201   MPKI: 80.7981
L1D LOAD      ACCESS:   14560474  HIT:   10865912  MISS:    3694562  HIT %:    74.6261  MISS %:    25.3739   MPKI: 73.8912
L1D RFO       ACCESS:    4270745  HIT:    3951394  MISS:     319351  HIT %:    92.5224  MISS %:    7.47764   MPKI: 6.38702
L1D PREFETCH  ACCESS:      29112  HIT:       3120  MISS:      25992  HIT %:    10.7172  MISS %:    89.2828   MPKI: 0.51984
L1D PREFETCH  REQUESTED:      58266  ISSUED:      58266  USEFUL:       2958  USELESS:      22981
L1D USEFUL LOAD PREFETCHES:       2958 PREFETCH ISSUED TO LOWER LEVEL:      27310  ACCURACY: 10.8312
L1D TIMELY PREFETCHES:       2958 LATE PREFETCHES: 4 DROPPED PREFETCHES: 0
L1D PREFETCHES SAME FILL-ORIGIN LEVEL: 27310 DIFFERENT FILL-ORIGIN LEVEL: 0
L1D AVERAGE MISS LATENCY: 23.1701 cycles
L1D RQ	ACCESS:   18622481	FORWARD:          0	MERGED:    3958122	TO_CACHE:   14655985
L1D WQ	ACCESS:    4319711	FORWARD:       8374	MERGED:      22852	TO_CACHE:    4296859
L1D PQ	ACCESS:      29133	FORWARD:          0	MERGED:          0	TO_CACHE:      29133

L1D UNIQUE REGIONS ACCESSED: 0
L1D REGIONS CONFLICTS: 0
L1D Cross Page Prefetch Requests: 0
L1D Same Page Prefetch Requests: 30457
L1D ROI Sum of L1D PQ occupancy: 410961
L1D PREFETCHES PUSHED FROM L2C: 0
L1I TOTAL     ACCESS:    7954875  HIT:    6865118  MISS:    1089757  HIT %:    86.3008  MISS %:    13.6992   MPKI: 21.7951
L1I LOAD      ACCESS:    7954875  HIT:    6865118  MISS:    1089757  HIT %:    86.3008  MISS %:    13.6992   MPKI: 21.7951
L1I PREFETCH  REQUESTED:          0  ISSUED:          0  USEFUL:          0  USELESS:          0
L1I USEFUL LOAD PREFETCHES:          0 PREFETCH ISSUED TO LOWER LEVEL:          0  ACCURACY: -nan
L1I TIMELY PREFETCHES:          0 LATE PREFETCHES: 0 DROPPED PREFETCHES: 0
L1I PREFETCHES SAME FILL-ORIGIN LEVEL: 0 DIFFERENT FILL-ORIGIN LEVEL: 0
L1I AVERAGE MISS LATENCY: 14.2663 cycles
L1I RQ	ACCESS:   12018353	FORWARD:          0	MERGED:    3507306	TO_CACHE:    8511047

BTB TOTAL     ACCESS:     280550  HIT:     262606  MISS:      17944  HIT %:     93.604  MISS %:    6.39601   MPKI: 0.35888
BTB BRANCH_DIRECT_JUMP	ACCESS:      48856  HIT:      48796  MISS:         60
BTB BRANCH_INDIRECT	ACCESS:      10100  HIT:      10021  MISS:         79
BTB BRANCH_CONDITIONAL	ACCESS:     122188  HIT:     121715  MISS:        473
BTB BRANCH_DIRECT_CALL	ACCESS:      49700  HIT:      49036  MISS:        664
BTB BRANCH_INDIRECT_CALL	ACCESS:          3  HIT:          0  MISS:          3
BTB BRANCH_RETURN	ACCESS:      49703  HIT:      33038  MISS:      16665
BTB BRANCH_OTHER ACCESS:          0  HIT:          0  MISS:          0

L2C TOTAL     ACCESS:    7967014  HIT:    7629615  MISS:     337399  HIT %:    95.7651  MISS %:    4.23495   MPKI: 6.74798
L2C LOAD      ACCESS:    4767997  HIT:    4690745  MISS:      77252  HIT %:    98.3798  MISS %:    1.62022   MPKI: 1.54504
L2C DATA LOAD MPKI: 1.5147
L2C INSTRUCTION LOAD MPKI: 0.03034
L2C RFO       ACCESS:     319076  HIT:     292003  MISS:      27073  HIT %:    91.5152  MISS %:    8.48481   MPKI: 0.54146
L2C PREFETCH  ACCESS:    2530201  HIT:    2301089  MISS:     229112  HIT %:    90.9449  MISS %:    9.05509   MPKI: 4.58224
L2C DATA PREFETCH MPKI: 4.58224
L2C INSTRUCTION PREFETCH MPKI: 0
L2C WRITEBACK ACCESS:     345269  HIT:     345259  MISS:         10  HIT %:    99.9971  MISS %: 0.00289629   MPKI: 0.0002
L2C LOAD TRANSLATION ACCESS:       4471  HIT:        519  MISS:       3952  HIT %:    11.6081  MISS %:    88.3919   MPKI: 0.07904
L2C PREFETCH  REQUESTED:    2541249  ISSUED:    2511404  USEFUL:     221966  USELESS:       7079
L2C USEFUL LOAD PREFETCHES:     221966 PREFETCH ISSUED TO LOWER LEVEL:     229180  ACCURACY: 96.8523
L2C TIMELY PREFETCHES:     221966 LATE PREFETCHES: 68 DROPPED PREFETCHES: 0
L2C PREFETCHES SAME FILL-ORIGIN LEVEL: 211304 DIFFERENT FILL-ORIGIN LEVEL: 0
L2C AVERAGE MISS LATENCY: 189.22 cycles
L2C RQ	ACCESS:    5108141	FORWARD:          0	MERGED:          0	TO_CACHE:    5091544
L2C WQ	ACCESS:     345269	FORWARD:      16627	MERGED:          0	TO_CACHE:     345269
L2C PQ	ACCESS:    2537396	FORWARD:          0	MERGED:       4676	TO_CACHE:    2532690

L2C Instructions Evicting Data 1489
L2C Translations Evicting Data 3882
L2C Data Evicting Data 326444
L2C Instructions Evicting Instructions 18
L2C Translations Evicting Instructions 16
L2C Data Evicting Instructions 1635
L2C Instructions Evicting Translations 10
L2C Translations Evicting Translations 54
L2C Data Evicting Translations 3841
L2C Dense regions hint from L2: 0
PSCL5 TOTAL     ACCESS:       3058  HIT:       3058  MISS:          0  HIT %:        100  MISS %:          0   MPKI: 0
PSCL5 LOAD TRANSLATION ACCESS:       3058  HIT:       3058  MISS:          0  HIT %:        100  MISS %:          0   MPKI: 0
PSCL5 PREFETCH  REQUESTED:          0  ISSUED:          0  USEFUL:          0  USELESS:          0
PSCL5 USEFUL LOAD PREFETCHES:          0 PREFETCH ISSUED TO LOWER LEVEL:          0  ACCURACY: -nan
PSCL5 TIMELY PREFETCHES:          0 LATE PREFETCHES: 0 DROPPED PREFETCHES: 0
PSCL5 PREFETCHES SAME FILL-ORIGIN LEVEL: 0 DIFFERENT FILL-ORIGIN LEVEL: 0

PSCL4 TOTAL     ACCESS:       3058  HIT:       3058  MISS:          0  HIT %:        100  MISS %:          0   MPKI: 0
PSCL4 LOAD TRANSLATION ACCESS:       3058  HIT:       3058  MISS:          0  HIT %:        100  MISS %:          0   MPKI: 0
PSCL4 PREFETCH  REQUESTED:          0  ISSUED:          0  USEFUL:          0  USELESS:          0
PSCL4 USEFUL LOAD PREFETCHES:          0 PREFETCH ISSUED TO LOWER LEVEL:          0  ACCURACY: -nan
PSCL4 TIMELY PREFETCHES:          0 LATE PREFETCHES: 0 DROPPED PREFETCHES: 0
PSCL4 PREFETCHES SAME FILL-ORIGIN LEVEL: 0 DIFFERENT FILL-ORIGIN LEVEL: 0

PSCL3 TOTAL     ACCESS:       3058  HIT:       3053  MISS:          5  HIT %:    99.8365  MISS %:   0.163506   MPKI: 0.0001
PSCL3 LOAD TRANSLATION ACCESS:       3058  HIT:       3053  MISS:          5  HIT %:    99.8365  MISS %:   0.163506   MPKI: 0.0001
PSCL3 PREFETCH  REQUESTED:          0  ISSUED:          0  USEFUL:          0  USELESS:          0
PSCL3 USEFUL LOAD PREFETCHES:          0 PREFETCH ISSUED TO LOWER LEVEL:          0  ACCURACY: -nan
PSCL3 TIMELY PREFETCHES:          0 LATE PREFETCHES: 0 DROPPED PREFETCHES: 0
PSCL3 PREFETCHES SAME FILL-ORIGIN LEVEL: 0 DIFFERENT FILL-ORIGIN LEVEL: 0

PSCL2 TOTAL     ACCESS:       3058  HIT:       1588  MISS:       1470  HIT %:    51.9294  MISS %:    48.0706   MPKI: 0.0294
PSCL2 LOAD TRANSLATION ACCESS:       3058  HIT:       1588  MISS:       1470  HIT %:    51.9294  MISS %:    48.0706   MPKI: 0.0294
PSCL2 PREFETCH  REQUESTED:          0  ISSUED:          0  USEFUL:          0  USELESS:          0
PSCL2 USEFUL LOAD PREFETCHES:          0 PREFETCH ISSUED TO LOWER LEVEL:          0  ACCURACY: -nan
PSCL2 TIMELY PREFETCHES:          0 LATE PREFETCHES: 0 DROPPED PREFETCHES: 0
PSCL2 PREFETCHES SAME FILL-ORIGIN LEVEL: 0 DIFFERENT FILL-ORIGIN LEVEL: 0

LLC TOTAL     ACCESS:     371800  HIT:     195162  MISS:     176638  HIT %:    52.4911  MISS %:    47.5089   MPKI: 3.53276
LLC LOAD      ACCESS:      77182  HIT:      44347  MISS:      32835  HIT %:    57.4577  MISS %:    42.5423   MPKI: 0.6567
LLC RFO       ACCESS:      27003  HIT:       2339  MISS:      24664  HIT %:      8.662  MISS %:     91.338   MPKI: 0.49328
LLC PREFETCH  ACCESS:     229180  HIT:     110718  MISS:     118462  HIT %:    48.3105  MISS %:    51.6895   MPKI: 2.36924
LLC WRITEBACK ACCESS:      34483  HIT:      34439  MISS:         44  HIT %:    99.8724  MISS %:   0.127599   MPKI: 0.00088
LLC LOAD TRANSLATION ACCESS:       3952  HIT:       3319  MISS:        633  HIT %:    83.9828  MISS %:    16.0172   MPKI: 0.01266
LLC PREFETCH  REQUESTED:          0  ISSUED:          0  USEFUL:      18028  USELESS:      90443
LLC USEFUL LOAD PREFETCHES:      18028 PREFETCH ISSUED TO LOWER LEVEL:     118462  ACCURACY: 15.2184
LLC TIMELY PREFETCHES:      18028 LATE PREFETCHES: 0 DROPPED PREFETCHES: 0
LLC PREFETCHES SAME FILL-ORIGIN LEVEL: 0 DIFFERENT FILL-ORIGIN LEVEL: 0
LLC AVERAGE MISS LATENCY: 302.074 cycles
LLC RQ	ACCESS:     108209	FORWARD:          0	MERGED:          0	TO_CACHE:     108137
LLC WQ	ACCESS:      34483	FORWARD:         72	MERGED:          0	TO_CACHE:      34483
LLC PQ	ACCESS:     229180	FORWARD:          0	MERGED:          0	TO_CACHE:     229180

LLC Dense regions hint to LLC: 0

RAW hits: 104636
Loads Generated: 18727117
Loads sent to L1D: 18622481
Stores Generated: 4319811
Stores sent to L1D: 4319809
Major fault: 0 Minor fault: 3837
Allocated PAGES: 3837

stream: 
stream:times selected: 36418
stream:pref_filled: 21577
stream:pref_useful: 2722
stream:pref_late: 3
stream:misses: 492
stream:misses_by_poll: 0

CS: 
CS:times selected: 18410
CS:pref_filled: 349
CS:pref_useful: 41
CS:pref_late: 2
CS:misses: 2477
CS:misses_by_poll: 0

CPLX: 
CPLX:times selected: 34519
CPLX:pref_filled: 551
CPLX:pref_useful: 149
CPLX:pref_late: 0
CPLX:misses: 145483
CPLX:misses_by_poll: 0

NL_L1: 
NL:times selected: 4
NL:pref_filled: 3
NL:pref_useful: 1
NL:pref_late: 0
NL:misses: 17
NL:misses_by_poll: 0

total selections: 89351
total_filled: 25992
total_useful: 2958
total_late: 6
total_polluted: 0
total_misses_after_warmup: 3790081
conflicts: 7002865
Degree Incremented Times: 0
Degree Decremented Times: 386039

L1 IP Table Write Accesses: 7403660
L1 IP Table Read Accesses: 400795
L1 RST Write Accesses: 34210
L1 RST Read Accesses: 68420
L1 CSPT Write Accesses: 34210
L1 CSPT Read Accesses: 68214
L1 RR Filter Tag Write Accesses: 29133
L1 RR Filter Tag Read Accesses: 2486251
L1 IP Table Tag Write Accesses: 14655993
L1 IP Table Tag Read Accesses: 14655993
L1 RST Tag Write Accesses: 0
L1 RST Tag Read Accesses: 292334
L1 RR Filter Write Accesses: 0
L1 RR Filter Read Accesses: 82586
test: 2384
L2 IP Table Read Accesses: 4819356
L2 IP Table Write Accesses: 5996631
L2 IP Table Tag Read Accesses: 3699520
L2 IP Table Tag Write Accesses: 3699520

DRAM Statistics
 CHANNEL 0
 RQ ROW_BUFFER_HIT:     100247  ROW_BUFFER_MISS:      76347
 DBUS_CONGESTED:        188
 WQ ROW_BUFFER_HIT:      13148  ROW_BUFFER_MISS:      21353  FULL:          0

 AVG_CONGESTED_CYCLE: 4
 All warmup complete: 2
Channel 0 Bank busy for read cycles: 0
Channel 0 Bank busy for write cycles: 0
Channel 0
Rank 0
0banks busy for read cycles: 43945706
0banks busy for write cycles: 10242
1banks busy for read cycles: 4714323
1banks busy for write cycles: 1351961
2banks busy for read cycles: 1568144
2banks busy for write cycles: 436684
3banks busy for read cycles: 1041037
3banks busy for write cycles: 268746
4banks busy for read cycles: 552051
4banks busy for write cycles: 219788
5banks busy for read cycles: 333767
5banks busy for write cycles: 140215
6banks busy for read cycles: 170025
6banks busy for write cycles: 98665
7banks busy for read cycles: 79566
7banks busy for write cycles: 55389
8banks busy for read cycles: 4886
8banks busy for write cycles: 12179

CPU 0 Branch Prediction Accuracy: 99.2795% MPKI: 0.0593 Average ROB Occupancy at Mispredict: 16.4938
Branch types
NOT_BRANCH: 49588170 99.1763%
BRANCH_DIRECT_JUMP: 48856 0.097712%
BRANCH_INDIRECT: 10100 0.0202%
BRANCH_CONDITIONAL: 253148 0.506296%
BRANCH_DIRECT_CALL: 49700 0.0994%
BRANCH_INDIRECT_CALL: 3 6e-06%
BRANCH_RETURN: 49703 0.099406%
BRANCH_OTHER: 0 0%

@sumon_overall_L1D      2958         4     22981     25992     58266     58266
@Sumon_Early_by_class_L1D      2566        21        59         0
@Sumon_Late_by_class_L1D         1         2         0         0

@Sumon_Early_by_cycle_L1D        24        16        15         8         2        16         9        37       174      2619        19        19
@Sumon_Late_by_cycle_L1D         2         2         0         0         0         0         0         0         0         0         0         0
@Sumon_Early_stream_L1D        20        12         8         4         1        11         6        28       153      2301        12        10
@Sumon_Early_CS_L1D         1         0         6         2         1         1         0         0         0        10         0         0
@Sumon_Early_CPLX_L1D         2         2         1         2         0         3         2         2         3        27         6         9
@Sumon_Late_stream_L1D         1         0         0         0         0         0         0         0         0         0         0         0
@Sumon_Late_CS_L1D         0         2         0         0         0         0         0         0         0         0         0         0
@Sumon_Late_CPLX_L1D         0         0         0         0         0         0         0         0         0         0         0         0
@sumon_overall_L2C    221966        68      7079    229112   2511404   2541249
@Sumon_Early_by_class_L2C     13674        27        16         0
@Sumon_Late_by_class_L2C         0         0         0         0

@Sumon_Early_by_cycle_L2C        51         3         2         2         3         5       493       612      9597    205664      5328       206
@Sumon_Late_by_cycle_L2C        67         1         0         0         0         0         0         0         0         0         0         0
@Sumon_Early_stream_L2C         0         0         0         0         0         0         0        24       595     13013        40         2
@Sumon_Early_CS_L2C         0         0         0         0         0         0         0         0         0        27         0         0
@Sumon_Early_CPLX_L2C         0         0         0         0         0         0         0         0         0         6         6         4
@Sumon_Late_stream_L2C         0         0         0         0         0         0         0         0         0         0         0         0
@Sumon_Late_CS_L2C         0         0         0         0         0         0         0         0         0         0         0         0
@Sumon_Late_CPLX_L2C         0         0         0         0         0         0         0         0         0         0         0         0
DRAM PAGES: 1048576
Allocated PAGES: 3837
