
*** ChampSim Multicore Out-of-Order Simulator ***

Warmup Instructions: 10000000
Simulation Instructions: 50000000
Number of CPUs: 1
LLC sets: 2048
LLC ways: 16
Off-chip DRAM Size: 4096 MB Channels: 1 Width: 64-bit Data Rate: 6400 MT/s
CPU 0 runs traces/SPEC2017/654.roms_s-293B.champsimtrace.xz
.xz
CPU 0 Bimodal branch predictor
BTB has LRU replacement policy
ITLB has LRU replacement policy
DTLB has LRU replacement policy
STLB has LRU replacement policy
L1I has LRU replacement policy
IP Table Entries: 256
L1D has LRU replacement policy
IP_Table L2 entries: 256
L2C has LRU replacement policy
LLC has LRU replacement policy
Heartbeat CPU 0 instructions: 10000001 cycles: 3119060 heartbeat IPC: 3.20609 cumulative IPC: 3.20609 (Simulation time: 0 hr 23 min 31 sec) 

Warmup complete CPU 0 instructions: 10000001 cycles: 3119060 (Simulation time: 0 hr 23 min 31 sec) 

Heartbeat CPU 0 instructions: 20000003 cycles: 12928530 heartbeat IPC: 1.01942 cumulative IPC: 1.01942 (Simulation time: 0 hr 42 min 23 sec) 
Heartbeat CPU 0 instructions: 30000000 cycles: 22422791 heartbeat IPC: 1.05327 cumulative IPC: 1.03607 (Simulation time: 1 hr 0 min 50 sec) 
Heartbeat CPU 0 instructions: 40000003 cycles: 32236552 heartbeat IPC: 1.01898 cumulative IPC: 1.03031 (Simulation time: 1 hr 19 min 47 sec) 
