
*** ChampSim Multicore Out-of-Order Simulator ***

Warmup Instructions: 10000000
Simulation Instructions: 50000000
Number of CPUs: 1
LLC sets: 2048
LLC ways: 16
Off-chip DRAM Size: 4096 MB Channels: 1 Width: 64-bit Data Rate: 6400 MT/s
CPU 0 runs traces/clientserver/server_022.champsimtrace.xz
.xz
CPU 0 Bimodal branch predictor
BTB has LRU replacement policy
ITLB has LRU replacement policy
DTLB has LRU replacement policy
STLB has LRU replacement policy
L1I has LRU replacement policy
IP Table Entries: 256
Initialize DRRIP state for L1D
IP_Table L2 entries: 256
L2C has LRU replacement policy
LLC has LRU replacement policy
Heartbeat CPU 0 instructions: 10000001 cycles: 3154207 heartbeat IPC: 3.17037 cumulative IPC: 3.17037 (Simulation time: 1 hr 58 min 54 sec) 

Warmup complete CPU 0 instructions: 10000001 cycles: 3154207 (Simulation time: 1 hr 58 min 54 sec) 

Heartbeat CPU 0 instructions: 20000001 cycles: 26589265 heartbeat IPC: 0.426711 cumulative IPC: 0.426711 (Simulation time: 2 hr 14 min 34 sec) 
Heartbeat CPU 0 instructions: 30000002 cycles: 50048834 heartbeat IPC: 0.426265 cumulative IPC: 0.426488 (Simulation time: 2 hr 28 min 6 sec) 
Heartbeat CPU 0 instructions: 40000002 cycles: 73231091 heartbeat IPC: 0.431364 cumulative IPC: 0.428101 (Simulation time: 2 hr 38 min 14 sec) 
Heartbeat CPU 0 instructions: 50000002 cycles: 96765250 heartbeat IPC: 0.424914 cumulative IPC: 0.4273 (Simulation time: 2 hr 41 min 44 sec) 
Heartbeat CPU 0 instructions: 60000002 cycles: 120166635 heartbeat IPC: 0.427325 cumulative IPC: 0.427305 (Simulation time: 2 hr 43 min 25 sec) 
Finished CPU 0 instructions: 50000001 cycles: 117012428 cumulative IPC: 0.427305 (Simulation time: 2 hr 43 min 25 sec) 

ChampSim completed all CPUs

Region of Interest Statistics

CPU 0 cumulative IPC: 0.427305 instructions: 50000001 cycles: 117012428
ITLB TOTAL     ACCESS:    8973573  HIT:    8589256  MISS:     384317  HIT %:    95.7172  MISS %:    4.28276   MPKI: 7.68634
ITLB LOAD TRANSLATION ACCESS:    8973573  HIT:    8589256  MISS:     384317  HIT %:    95.7172  MISS %:    4.28276   MPKI: 7.68634
ITLB PREFETCH  REQUESTED:          0  ISSUED:          0  USEFUL:          0  USELESS:          0
ITLB USEFUL LOAD PREFETCHES:          0 PREFETCH ISSUED TO LOWER LEVEL:          0  ACCURACY: -nan
ITLB TIMELY PREFETCHES:          0 LATE PREFETCHES: 0 DROPPED PREFETCHES: 0
ITLB PREFETCHES SAME FILL-ORIGIN LEVEL: 0 DIFFERENT FILL-ORIGIN LEVEL: 0
ITLB AVERAGE MISS LATENCY: 9.30411 cycles
ITLB RQ	ACCESS:   10594338	FORWARD:          0	MERGED:    1497754	TO_CACHE:    9096584

DTLB TOTAL     ACCESS:   11730942  HIT:   11324186  MISS:     406756  HIT %:    96.5326  MISS %:    3.46738   MPKI: 8.13512
DTLB LOAD TRANSLATION ACCESS:   11730942  HIT:   11324186  MISS:     406756  HIT %:    96.5326  MISS %:    3.46738   MPKI: 8.13512
DTLB PREFETCH  REQUESTED:          0  ISSUED:          0  USEFUL:          0  USELESS:          0
DTLB USEFUL LOAD PREFETCHES:          0 PREFETCH ISSUED TO LOWER LEVEL:          0  ACCURACY: -nan
DTLB TIMELY PREFETCHES:          0 LATE PREFETCHES: 0 DROPPED PREFETCHES: 0
DTLB PREFETCHES SAME FILL-ORIGIN LEVEL: 0 DIFFERENT FILL-ORIGIN LEVEL: 0
DTLB AVERAGE MISS LATENCY: 17.4145 cycles
DTLB RQ	ACCESS:   16830619	FORWARD:          0	MERGED:    5027571	TO_CACHE:   11803048

STLB TOTAL     ACCESS:    1466078  HIT:    1446388  MISS:      19690  HIT %:     98.657  MISS %:    1.34304   MPKI: 0.3938
STLB LOAD TRANSLATION ACCESS:     791073  HIT:     771383  MISS:      19690  HIT %:     97.511  MISS %:    2.48902   MPKI: 0.3938
STLB TRANSLATION FROM L1D PREFETCHER ACCESS:     675005  HIT:     675005  MISS:          0  HIT %:        100  MISS %:          0   MPKI: 0
STLB PREFETCH  REQUESTED:          0  ISSUED:          0  USEFUL:          0  USELESS:          0
STLB USEFUL LOAD PREFETCHES:          0 PREFETCH ISSUED TO LOWER LEVEL:          0  ACCURACY: -nan
STLB TIMELY PREFETCHES:          0 LATE PREFETCHES: 0 DROPPED PREFETCHES: 0
STLB PREFETCHES SAME FILL-ORIGIN LEVEL: 0 DIFFERENT FILL-ORIGIN LEVEL: 0
STLB AVERAGE MISS LATENCY: 179.23 cycles
STLB RQ	ACCESS:    1562787	FORWARD:          0	MERGED:      96709	TO_CACHE:    1466078

STLB Hit, L1D data hit: 0
STLB Hit, L2C data hit: 0
STLB Hit, LLC data hit: 0
STLB Hit, LLC data miss: 0
STLB STLB hints to L2: 0
L1D TOTAL     ACCESS:   14782107  HIT:   12721355  MISS:    2060752  HIT %:    86.0591  MISS %:    13.9409   MPKI: 41.215
L1D LOAD      ACCESS:    7990660  HIT:    7360087  MISS:     630573  HIT %:    92.1086  MISS %:    7.89138   MPKI: 12.6115
L1D RFO       ACCESS:    6096299  HIT:    5108701  MISS:     987598  HIT %:       83.8  MISS %:       16.2   MPKI: 19.752
L1D PREFETCH  ACCESS:     695148  HIT:     252567  MISS:     442581  HIT %:    36.3328  MISS %:    63.6672   MPKI: 8.85162
L1D PREFETCH  REQUESTED:    1545242  ISSUED:    1543463  USEFUL:     326933  USELESS:     115651
L1D USEFUL LOAD PREFETCHES:     326933 PREFETCH ISSUED TO LOWER LEVEL:     500133  ACCURACY: 65.3692
L1D TIMELY PREFETCHES:     326933 LATE PREFETCHES: 57532 DROPPED PREFETCHES: 0
L1D PREFETCHES SAME FILL-ORIGIN LEVEL: 500133 DIFFERENT FILL-ORIGIN LEVEL: 0
L1D AVERAGE MISS LATENCY: 1.72026e+06 cycles
L1D RQ	ACCESS:   11536124	FORWARD:          0	MERGED:    3382815	TO_CACHE:    8032375
L1D WQ	ACCESS:    8859606	FORWARD:     120969	MERGED:      61362	TO_CACHE:    8798244
L1D PQ	ACCESS:     771749	FORWARD:          0	MERGED:          0	TO_CACHE:     771714

L1D UNIQUE REGIONS ACCESSED: 0
L1D REGIONS CONFLICTS: 0
L1D Cross Page Prefetch Requests: 0
L1D Same Page Prefetch Requests: 927199
L1D ROI Sum of L1D PQ occupancy: 13065975
L1D PREFETCHES PUSHED FROM L2C: 0
L1I TOTAL     ACCESS:    9860274  HIT:    7409558  MISS:    2450716  HIT %:    75.1456  MISS %:    24.8544   MPKI: 49.0143
L1I LOAD      ACCESS:    9860274  HIT:    7409558  MISS:    2450716  HIT %:    75.1456  MISS %:    24.8544   MPKI: 49.0143
L1I PREFETCH  REQUESTED:          0  ISSUED:          0  USEFUL:          0  USELESS:          0
L1I USEFUL LOAD PREFETCHES:          0 PREFETCH ISSUED TO LOWER LEVEL:          0  ACCURACY: -nan
L1I TIMELY PREFETCHES:          0 LATE PREFETCHES: 0 DROPPED PREFETCHES: 0
L1I PREFETCHES SAME FILL-ORIGIN LEVEL: 0 DIFFERENT FILL-ORIGIN LEVEL: 0
L1I AVERAGE MISS LATENCY: 16.8211 cycles
L1I RQ	ACCESS:   14537479	FORWARD:          0	MERGED:    3943141	TO_CACHE:   10594338

BTB TOTAL     ACCESS:    5312390  HIT:    5051460  MISS:     260930  HIT %:    95.0883  MISS %:    4.91173   MPKI: 5.2186
BTB BRANCH_DIRECT_JUMP	ACCESS:     445390  HIT:     443225  MISS:       2165
BTB BRANCH_INDIRECT	ACCESS:      48845  HIT:      48732  MISS:        113
BTB BRANCH_CONDITIONAL	ACCESS:    2983725  HIT:    2977217  MISS:       6508
BTB BRANCH_DIRECT_CALL	ACCESS:     758108  HIT:     753662  MISS:       4446
BTB BRANCH_INDIRECT_CALL	ACCESS:     159112  HIT:     129310  MISS:      29802
BTB BRANCH_RETURN	ACCESS:     917210  HIT:     699314  MISS:     217896
BTB BRANCH_OTHER ACCESS:          0  HIT:          0  MISS:          0

L2C TOTAL     ACCESS:    6278232  HIT:    4407913  MISS:    1870319  HIT %:    70.2095  MISS %:    29.7905   MPKI: 37.4064
L2C LOAD      ACCESS:    3023711  HIT:    2614468  MISS:     409243  HIT %:    86.4655  MISS %:    13.5345   MPKI: 8.18486
L2C DATA LOAD MPKI: 5.38434
L2C INSTRUCTION LOAD MPKI: 2.80052
L2C RFO       ACCESS:     987374  HIT:      32656  MISS:     954718  HIT %:    3.30736  MISS %:    96.6926   MPKI: 19.0944
L2C PREFETCH  ACCESS:    1092214  HIT:     599999  MISS:     492215  HIT %:    54.9342  MISS %:    45.0658   MPKI: 9.8443
L2C DATA PREFETCH MPKI: 9.8443
L2C INSTRUCTION PREFETCH MPKI: 0
L2C WRITEBACK ACCESS:    1153090  HIT:    1148498  MISS:       4592  HIT %:    99.6018  MISS %:   0.398234   MPKI: 0.09184
L2C LOAD TRANSLATION ACCESS:      21843  HIT:      12292  MISS:       9551  HIT %:    56.2743  MISS %:    43.7257   MPKI: 0.19102
L2C PREFETCH  REQUESTED:     901994  ISSUED:     901994  USEFUL:      64613  USELESS:     427566
L2C USEFUL LOAD PREFETCHES:      64613 PREFETCH ISSUED TO LOWER LEVEL:     495393  ACCURACY: 13.0428
L2C TIMELY PREFETCHES:      64613 LATE PREFETCHES: 3178 DROPPED PREFETCHES: 0
L2C PREFETCHES SAME FILL-ORIGIN LEVEL: 381827 DIFFERENT FILL-ORIGIN LEVEL: 0
L2C AVERAGE MISS LATENCY: 195.083 cycles
L2C RQ	ACCESS:    4033194	FORWARD:          0	MERGED:          0	TO_CACHE:    4032929
L2C WQ	ACCESS:    1153091	FORWARD:        269	MERGED:          1	TO_CACHE:    1153090
L2C PQ	ACCESS:    1402112	FORWARD:          0	MERGED:      81874	TO_CACHE:    1320234

L2C Instructions Evicting Data 132185
L2C Translations Evicting Data 8881
L2C Data Evicting Data 1576214
L2C Instructions Evicting Instructions 7072
L2C Translations Evicting Instructions 635
L2C Data Evicting Instructions 131178
L2C Instructions Evicting Translations 769
L2C Translations Evicting Translations 35
L2C Data Evicting Translations 8758
L2C Dense regions hint from L2: 0
PSCL5 TOTAL     ACCESS:      19690  HIT:      19690  MISS:          0  HIT %:        100  MISS %:          0   MPKI: 0
PSCL5 LOAD TRANSLATION ACCESS:      19690  HIT:      19690  MISS:          0  HIT %:        100  MISS %:          0   MPKI: 0
PSCL5 PREFETCH  REQUESTED:          0  ISSUED:          0  USEFUL:          0  USELESS:          0
PSCL5 USEFUL LOAD PREFETCHES:          0 PREFETCH ISSUED TO LOWER LEVEL:          0  ACCURACY: -nan
PSCL5 TIMELY PREFETCHES:          0 LATE PREFETCHES: 0 DROPPED PREFETCHES: 0
PSCL5 PREFETCHES SAME FILL-ORIGIN LEVEL: 0 DIFFERENT FILL-ORIGIN LEVEL: 0

PSCL4 TOTAL     ACCESS:      17966  HIT:      17945  MISS:         21  HIT %:    99.8831  MISS %:   0.116887   MPKI: 0.00042
PSCL4 LOAD TRANSLATION ACCESS:      17966  HIT:      17945  MISS:         21  HIT %:    99.8831  MISS %:   0.116887   MPKI: 0.00042
PSCL4 PREFETCH  REQUESTED:          0  ISSUED:          0  USEFUL:          0  USELESS:          0
PSCL4 USEFUL LOAD PREFETCHES:          0 PREFETCH ISSUED TO LOWER LEVEL:          0  ACCURACY: -nan
PSCL4 TIMELY PREFETCHES:          0 LATE PREFETCHES: 0 DROPPED PREFETCHES: 0
PSCL4 PREFETCHES SAME FILL-ORIGIN LEVEL: 0 DIFFERENT FILL-ORIGIN LEVEL: 0

PSCL3 TOTAL     ACCESS:      19684  HIT:      19642  MISS:         42  HIT %:    99.7866  MISS %:   0.213371   MPKI: 0.00084
PSCL3 LOAD TRANSLATION ACCESS:      19684  HIT:      19642  MISS:         42  HIT %:    99.7866  MISS %:   0.213371   MPKI: 0.00084
PSCL3 PREFETCH  REQUESTED:          0  ISSUED:          0  USEFUL:          0  USELESS:          0
PSCL3 USEFUL LOAD PREFETCHES:          0 PREFETCH ISSUED TO LOWER LEVEL:          0  ACCURACY: -nan
PSCL3 TIMELY PREFETCHES:          0 LATE PREFETCHES: 0 DROPPED PREFETCHES: 0
PSCL3 PREFETCHES SAME FILL-ORIGIN LEVEL: 0 DIFFERENT FILL-ORIGIN LEVEL: 0

PSCL2 TOTAL     ACCESS:      19690  HIT:      17569  MISS:       2121  HIT %:     89.228  MISS %:     10.772   MPKI: 0.04242
PSCL2 LOAD TRANSLATION ACCESS:      19690  HIT:      17569  MISS:       2121  HIT %:     89.228  MISS %:     10.772   MPKI: 0.04242
PSCL2 PREFETCH  REQUESTED:          0  ISSUED:          0  USEFUL:          0  USELESS:          0
PSCL2 USEFUL LOAD PREFETCHES:          0 PREFETCH ISSUED TO LOWER LEVEL:          0  ACCURACY: -nan
PSCL2 TIMELY PREFETCHES:          0 LATE PREFETCHES: 0 DROPPED PREFETCHES: 0
PSCL2 PREFETCHES SAME FILL-ORIGIN LEVEL: 0 DIFFERENT FILL-ORIGIN LEVEL: 0

LLC TOTAL     ACCESS:    2976601  HIT:    1696358  MISS:    1280243  HIT %:    56.9898  MISS %:    43.0102   MPKI: 25.6049
LLC LOAD      ACCESS:     406740  HIT:     305244  MISS:     101496  HIT %:    75.0465  MISS %:    24.9535   MPKI: 2.02992
LLC RFO       ACCESS:     954036  HIT:     147028  MISS:     807008  HIT %:    15.4112  MISS %:    84.5888   MPKI: 16.1402
LLC PREFETCH  ACCESS:     495393  HIT:     132338  MISS:     363055  HIT %:    26.7137  MISS %:    73.2863   MPKI: 7.2611
LLC WRITEBACK ACCESS:    1110881  HIT:    1109339  MISS:       1542  HIT %:    99.8612  MISS %:   0.138809   MPKI: 0.03084
LLC LOAD TRANSLATION ACCESS:       9551  HIT:       2409  MISS:       7142  HIT %:    25.2225  MISS %:    74.7775   MPKI: 0.14284
LLC PREFETCH  REQUESTED:          0  ISSUED:          0  USEFUL:       8078  USELESS:     354900
LLC USEFUL LOAD PREFETCHES:       8078 PREFETCH ISSUED TO LOWER LEVEL:     363055  ACCURACY: 2.22501
LLC TIMELY PREFETCHES:       8078 LATE PREFETCHES: 0 DROPPED PREFETCHES: 0
LLC PREFETCHES SAME FILL-ORIGIN LEVEL: 0 DIFFERENT FILL-ORIGIN LEVEL: 0
LLC AVERAGE MISS LATENCY: 239.666 cycles
LLC RQ	ACCESS:    1370334	FORWARD:          0	MERGED:          0	TO_CACHE:    1370327
LLC WQ	ACCESS:    1110881	FORWARD:          7	MERGED:          0	TO_CACHE:    1110881
LLC PQ	ACCESS:     495393	FORWARD:          0	MERGED:          0	TO_CACHE:     495393

LLC Dense regions hint to LLC: 0

RAW hits: 902522
Loads Generated: 12438642
Loads sent to L1D: 11536124
Stores Generated: 8859604
Stores sent to L1D: 8859606
Major fault: 0 Minor fault: 15227
Allocated PAGES: 15227

stream: 
stream:times selected: 2331240
stream:pref_filled: 95249
stream:pref_useful: 11864
stream:pref_late: 3875
stream:misses: 16999
stream:misses_by_poll: 0

CS: 
CS:times selected: 2059304
CS:pref_filled: 390767
CS:pref_useful: 373418
CS:pref_late: 52157
CS:misses: 65885
CS:misses_by_poll: 687

CPLX: 
CPLX:times selected: 266454
CPLX:pref_filled: 37208
CPLX:pref_useful: 1333
CPLX:pref_late: 240
CPLX:misses: 52754
CPLX:misses_by_poll: 25

NL_L1: 
NL:times selected: 851
NL:pref_filled: 291
NL:pref_useful: 12
NL:pref_late: 6
NL:misses: 377
NL:misses_by_poll: 0

total selections: 4657849
total_filled: 442581
total_useful: 326933
total_late: 58200
total_polluted: 712
total_misses_after_warmup: 672289
conflicts: 2691556
Degree Incremented Times: 24847
Degree Decremented Times: 106632

L1 IP Table Write Accesses: 5175697
L1 IP Table Read Accesses: 2484141
L1 RST Write Accesses: 1939241
L1 RST Read Accesses: 3878482
L1 CSPT Write Accesses: 1939241
L1 CSPT Read Accesses: 2159668
L1 RR Filter Tag Write Accesses: 773528
L1 RR Filter Tag Read Accesses: 218012348
L1 IP Table Tag Write Accesses: 8032376
L1 IP Table Tag Read Accesses: 8032376
L1 RST Tag Write Accesses: 0
L1 RST Tag Read Accesses: 17779304
L1 RR Filter Write Accesses: 0
L1 RR Filter Read Accesses: 7093825
test: 131416
L2 IP Table Read Accesses: 1292169
L2 IP Table Write Accesses: 1439010
L2 IP Table Tag Read Accesses: 845626
L2 IP Table Tag Write Accesses: 845626

DRAM Statistics
 CHANNEL 0
 RQ ROW_BUFFER_HIT:     434316  ROW_BUFFER_MISS:     844290
 DBUS_CONGESTED:        520
 WQ ROW_BUFFER_HIT:     292830  ROW_BUFFER_MISS:     582602  FULL:          0

 AVG_CONGESTED_CYCLE: 3
 All warmup complete: 2
Channel 0 Bank busy for read cycles: 0
Channel 0 Bank busy for write cycles: 0
Channel 0
Rank 0
0banks busy for read cycles: 42567858
0banks busy for write cycles: 45293
1banks busy for read cycles: 13105188
1banks busy for write cycles: 5587814
2banks busy for read cycles: 8707789
2banks busy for write cycles: 3124268
3banks busy for read cycles: 5808743
3banks busy for write cycles: 1998891
4banks busy for read cycles: 6757488
4banks busy for write cycles: 1620550
5banks busy for read cycles: 2222837
5banks busy for write cycles: 1384306
6banks busy for read cycles: 2016208
6banks busy for write cycles: 1288842
7banks busy for read cycles: 1642605
7banks busy for write cycles: 2015995
8banks busy for read cycles: 5251334
8banks busy for write cycles: 11866420

CPU 0 Branch Prediction Accuracy: 96.6462% MPKI: 5.50022 Average ROB Occupancy at Mispredict: 48.2429
Branch types
NOT_BRANCH: 41799589 83.5992%
BRANCH_DIRECT_JUMP: 445390 0.89078%
BRANCH_INDIRECT: 48845 0.09769%
BRANCH_CONDITIONAL: 5871404 11.7428%
BRANCH_DIRECT_CALL: 758108 1.51622%
BRANCH_INDIRECT_CALL: 159112 0.318224%
BRANCH_RETURN: 917210 1.83442%
BRANCH_OTHER: 0 0%

@sumon_overall_L1D    326933     57532    115651    442581   1543463   1545242
@Sumon_Early_by_class_L1D      9003    315470      1054         6
@Sumon_Late_by_class_L1D      3331     52148       151         6

@Sumon_Early_by_cycle_L1D    164095    146578     12422      1524       255       287       198       103       563       825        69        14
@Sumon_Late_by_cycle_L1D     37409     15975      3952       196         0         0         0         0         0         0         0         0
@Sumon_Early_stream_L1D      6907       286       342       367        67        52        75        28        25       777        64        13
@Sumon_Early_CS_L1D    155754    146016     11971      1002       110        36        24        25       507        22         3         0
@Sumon_Early_CPLX_L1D       289       130        65       145        71       177        92        34        26        23         2         0
@Sumon_Late_stream_L1D      1477      1852         2         0         0         0         0         0         0         0         0         0
@Sumon_Late_CS_L1D     34865     13137      3950       196         0         0         0         0         0         0         0         0
@Sumon_Late_CPLX_L1D        51       100         0         0         0         0         0         0         0         0         0         0
@sumon_overall_L2C     64613      3178    427566    492215    901994    901994
@Sumon_Early_by_class_L2C      1708      3795       973         0
@Sumon_Late_by_class_L2C         0       629         0         0

@Sumon_Early_by_cycle_L2C      8299      8443      6960      2336      1758     13265      2780       835      6255      1864      1911      9907
@Sumon_Late_by_cycle_L2C      1919      1244        15         0         0         0         0         0         0         0         0         0
@Sumon_Early_stream_L2C         1         0         7        11         1        22         6        19        36       300       331       974
@Sumon_Early_CS_L2C       608      1238       730       100         2        16        31        45       484       136        67       338
@Sumon_Early_CPLX_L2C         0         7         3        37        12        73        93       247        19        46        73       363
@Sumon_Late_stream_L2C         0         0         0         0         0         0         0         0         0         0         0         0
@Sumon_Late_CS_L2C       283       336        10         0         0         0         0         0         0         0         0         0
@Sumon_Late_CPLX_L2C         0         0         0         0         0         0         0         0         0         0         0         0
DRAM PAGES: 1048576
Allocated PAGES: 15227
