
*** ChampSim Multicore Out-of-Order Simulator ***

Warmup Instructions: 10000000
Simulation Instructions: 50000000
Number of CPUs: 1
LLC sets: 2048
LLC ways: 16
Off-chip DRAM Size: 4096 MB Channels: 1 Width: 64-bit Data Rate: 6400 MT/s
CPU 0 runs traces/clientserver/server_026.champsimtrace.xz
.xz
CPU 0 Bimodal branch predictor
BTB has LRU replacement policy
ITLB has LRU replacement policy
DTLB has LRU replacement policy
STLB has LRU replacement policy
L1I has LRU replacement policy
IP Table Entries: 256
Initialize DRRIP state for L1D
IP_Table L2 entries: 256
L2C has LRU replacement policy
LLC has LRU replacement policy
Heartbeat CPU 0 instructions: 10000000 cycles: 2886829 heartbeat IPC: 3.46401 cumulative IPC: 3.46401 (Simulation time: 1 hr 59 min 26 sec) 

Warmup complete CPU 0 instructions: 10000001 cycles: 2886830 (Simulation time: 1 hr 59 min 26 sec) 

Heartbeat CPU 0 instructions: 20000002 cycles: 28025344 heartbeat IPC: 0.397796 cumulative IPC: 0.397796 (Simulation time: 2 hr 10 min 14 sec) 
Heartbeat CPU 0 instructions: 30000000 cycles: 53117729 heartbeat IPC: 0.398527 cumulative IPC: 0.398161 (Simulation time: 2 hr 20 min 14 sec) 
Heartbeat CPU 0 instructions: 40000002 cycles: 78220555 heartbeat IPC: 0.398362 cumulative IPC: 0.398228 (Simulation time: 2 hr 28 min 51 sec) 
Heartbeat CPU 0 instructions: 50000000 cycles: 103217311 heartbeat IPC: 0.400052 cumulative IPC: 0.398682 (Simulation time: 2 hr 35 min 58 sec) 
*** Reached end of trace for Core: 0 Repeating trace: traces/clientserver/server_026.champsimtrace.xz
Heartbeat CPU 0 instructions: 60000000 cycles: 128393336 heartbeat IPC: 0.397203 cumulative IPC: 0.398386 (Simulation time: 2 hr 40 min 28 sec) 
Finished CPU 0 instructions: 50000001 cycles: 125506514 cumulative IPC: 0.398386 (Simulation time: 2 hr 40 min 28 sec) 

ChampSim completed all CPUs

Region of Interest Statistics

CPU 0 cumulative IPC: 0.398386 instructions: 50000001 cycles: 125506514
ITLB TOTAL     ACCESS:    8443390  HIT:    7956243  MISS:     487147  HIT %:    94.2304  MISS %:    5.76957   MPKI: 9.74294
ITLB LOAD TRANSLATION ACCESS:    8443390  HIT:    7956243  MISS:     487147  HIT %:    94.2304  MISS %:    5.76957   MPKI: 9.74294
ITLB PREFETCH  REQUESTED:          0  ISSUED:          0  USEFUL:          0  USELESS:          0
ITLB USEFUL LOAD PREFETCHES:          0 PREFETCH ISSUED TO LOWER LEVEL:          0  ACCURACY: -nan
ITLB TIMELY PREFETCHES:          0 LATE PREFETCHES: 0 DROPPED PREFETCHES: 0
ITLB PREFETCHES SAME FILL-ORIGIN LEVEL: 0 DIFFERENT FILL-ORIGIN LEVEL: 0
ITLB AVERAGE MISS LATENCY: 9.0669 cycles
ITLB RQ	ACCESS:   10070243	FORWARD:          0	MERGED:    1503687	TO_CACHE:    8566556

DTLB TOTAL     ACCESS:   12576928  HIT:   12099990  MISS:     476938  HIT %:    96.2078  MISS %:    3.79217   MPKI: 9.53876
DTLB LOAD TRANSLATION ACCESS:   12576928  HIT:   12099990  MISS:     476938  HIT %:    96.2078  MISS %:    3.79217   MPKI: 9.53876
DTLB PREFETCH  REQUESTED:          0  ISSUED:          0  USEFUL:          0  USELESS:          0
DTLB USEFUL LOAD PREFETCHES:          0 PREFETCH ISSUED TO LOWER LEVEL:          0  ACCURACY: -nan
DTLB TIMELY PREFETCHES:          0 LATE PREFETCHES: 0 DROPPED PREFETCHES: 0
DTLB PREFETCHES SAME FILL-ORIGIN LEVEL: 0 DIFFERENT FILL-ORIGIN LEVEL: 0
DTLB AVERAGE MISS LATENCY: 9.38685 cycles
DTLB RQ	ACCESS:   15690716	FORWARD:          0	MERGED:    3093694	TO_CACHE:   12597022

STLB TOTAL     ACCESS:    1397454  HIT:    1395218  MISS:       2236  HIT %:      99.84  MISS %:   0.160005   MPKI: 0.04472
STLB LOAD TRANSLATION ACCESS:     964085  HIT:     961849  MISS:       2236  HIT %:    99.7681  MISS %:    0.23193   MPKI: 0.04472
STLB TRANSLATION FROM L1D PREFETCHER ACCESS:     433369  HIT:     433369  MISS:          0  HIT %:        100  MISS %:          0   MPKI: 0
STLB PREFETCH  REQUESTED:          0  ISSUED:          0  USEFUL:          0  USELESS:          0
STLB USEFUL LOAD PREFETCHES:          0 PREFETCH ISSUED TO LOWER LEVEL:          0  ACCURACY: -nan
STLB TIMELY PREFETCHES:          0 LATE PREFETCHES: 0 DROPPED PREFETCHES: 0
STLB PREFETCHES SAME FILL-ORIGIN LEVEL: 0 DIFFERENT FILL-ORIGIN LEVEL: 0
STLB AVERAGE MISS LATENCY: 92.6185 cycles
STLB RQ	ACCESS:    1526865	FORWARD:          0	MERGED:     129410	TO_CACHE:    1397455

STLB Hit, L1D data hit: 0
STLB Hit, L2C data hit: 0
STLB Hit, LLC data hit: 0
STLB Hit, LLC data miss: 0
STLB STLB hints to L2: 0
L1D TOTAL     ACCESS:   15718253  HIT:   14490072  MISS:    1228181  HIT %:    92.1863  MISS %:    7.81372   MPKI: 24.5636
L1D LOAD      ACCESS:    8805719  HIT:    8037993  MISS:     767726  HIT %:    91.2815  MISS %:    8.71849   MPKI: 15.3545
L1D RFO       ACCESS:    6405939  HIT:    6120439  MISS:     285500  HIT %:    95.5432  MISS %:     4.4568   MPKI: 5.71
L1D PREFETCH  ACCESS:     506595  HIT:     331640  MISS:     174955  HIT %:    65.4645  MISS %:    34.5355   MPKI: 3.4991
L1D PREFETCH  REQUESTED:    1125808  ISSUED:    1125808  USEFUL:      57821  USELESS:     117147
L1D USEFUL LOAD PREFETCHES:      57821 PREFETCH ISSUED TO LOWER LEVEL:     214727  ACCURACY: 26.9277
L1D TIMELY PREFETCHES:      57821 LATE PREFETCHES: 39349 DROPPED PREFETCHES: 0
L1D PREFETCHES SAME FILL-ORIGIN LEVEL: 214727 DIFFERENT FILL-ORIGIN LEVEL: 0
L1D AVERAGE MISS LATENCY: 2.12748e+06 cycles
L1D RQ	ACCESS:   12100241	FORWARD:          0	MERGED:    3148658	TO_CACHE:    8838425
L1D WQ	ACCESS:    6899106	FORWARD:     113406	MERGED:      46815	TO_CACHE:    6852291
L1D PQ	ACCESS:     563028	FORWARD:          0	MERGED:          0	TO_CACHE:     562780

L1D UNIQUE REGIONS ACCESSED: 0
L1D REGIONS CONFLICTS: 0
L1D Cross Page Prefetch Requests: 0
L1D Same Page Prefetch Requests: 667167
L1D ROI Sum of L1D PQ occupancy: 7222843
L1D PREFETCHES PUSHED FROM L2C: 0
L1I TOTAL     ACCESS:    9610470  HIT:    6875959  MISS:    2734511  HIT %:    71.5465  MISS %:    28.4535   MPKI: 54.6902
L1I LOAD      ACCESS:    9610470  HIT:    6875959  MISS:    2734511  HIT %:    71.5465  MISS %:    28.4535   MPKI: 54.6902
L1I PREFETCH  REQUESTED:          0  ISSUED:          0  USEFUL:          0  USELESS:          0
L1I USEFUL LOAD PREFETCHES:          0 PREFETCH ISSUED TO LOWER LEVEL:          0  ACCURACY: -nan
L1I TIMELY PREFETCHES:          0 LATE PREFETCHES: 0 DROPPED PREFETCHES: 0
L1I PREFETCHES SAME FILL-ORIGIN LEVEL: 0 DIFFERENT FILL-ORIGIN LEVEL: 0
L1I AVERAGE MISS LATENCY: 18.8889 cycles
L1I RQ	ACCESS:   13814666	FORWARD:          0	MERGED:    3744423	TO_CACHE:   10070243

BTB TOTAL     ACCESS:    5982231  HIT:    3991091  MISS:    1991140  HIT %:    66.7158  MISS %:    33.2842   MPKI: 39.8228
BTB BRANCH_DIRECT_JUMP	ACCESS:     522633  HIT:     348042  MISS:     174591
BTB BRANCH_INDIRECT	ACCESS:     204723  HIT:     167232  MISS:      37491
BTB BRANCH_CONDITIONAL	ACCESS:    3049094  HIT:    2491586  MISS:     557508
BTB BRANCH_DIRECT_CALL	ACCESS:     929734  HIT:     525672  MISS:     404062
BTB BRANCH_INDIRECT_CALL	ACCESS:     173167  HIT:      95072  MISS:      78095
BTB BRANCH_RETURN	ACCESS:    1102880  HIT:     363487  MISS:     739393
BTB BRANCH_OTHER ACCESS:          0  HIT:          0  MISS:          0

L2C TOTAL     ACCESS:    5070697  HIT:    4254547  MISS:     816150  HIT %:    83.9046  MISS %:    16.0954   MPKI: 16.323
L2C LOAD      ACCESS:    3462731  HIT:    2917424  MISS:     545307  HIT %:    84.2521  MISS %:    15.7479   MPKI: 10.9061
L2C DATA LOAD MPKI: 2.25312
L2C INSTRUCTION LOAD MPKI: 8.65302
L2C RFO       ACCESS:     285009  HIT:     186541  MISS:      98468  HIT %:    65.4509  MISS %:    34.5491   MPKI: 1.96936
L2C PREFETCH  ACCESS:     826997  HIT:     671651  MISS:     155346  HIT %:    81.2157  MISS %:    18.7843   MPKI: 3.10692
L2C DATA PREFETCH MPKI: 3.10692
L2C INSTRUCTION PREFETCH MPKI: 0
L2C WRITEBACK ACCESS:     493573  HIT:     478202  MISS:      15371  HIT %:    96.8858  MISS %:    3.11423   MPKI: 0.30742
L2C LOAD TRANSLATION ACCESS:       2387  HIT:        729  MISS:       1658  HIT %:    30.5404  MISS %:    69.4596   MPKI: 0.03316
L2C PREFETCH  REQUESTED:     627815  ISSUED:     627815  USEFUL:      30047  USELESS:     125228
L2C USEFUL LOAD PREFETCHES:      30047 PREFETCH ISSUED TO LOWER LEVEL:     157648  ACCURACY: 19.0596
L2C TIMELY PREFETCHES:      30047 LATE PREFETCHES: 2302 DROPPED PREFETCHES: 0
L2C PREFETCHES SAME FILL-ORIGIN LEVEL: 91391 DIFFERENT FILL-ORIGIN LEVEL: 0
L2C AVERAGE MISS LATENCY: 34.6008 cycles
L2C RQ	ACCESS:    3750352	FORWARD:          0	MERGED:          0	TO_CACHE:    3750127
L2C WQ	ACCESS:     493573	FORWARD:        229	MERGED:          0	TO_CACHE:     493573
L2C PQ	ACCESS:     842542	FORWARD:          0	MERGED:       6678	TO_CACHE:     835860

L2C Instructions Evicting Data 183564
L2C Translations Evicting Data 1216
L2C Data Evicting Data 191286
L2C Instructions Evicting Instructions 248635
L2C Translations Evicting Instructions 398
L2C Data Evicting Instructions 174012
L2C Instructions Evicting Translations 451
L2C Translations Evicting Translations 44
L2C Data Evicting Translations 1164
L2C Dense regions hint from L2: 0
PSCL5 TOTAL     ACCESS:       2236  HIT:       2236  MISS:          0  HIT %:        100  MISS %:          0   MPKI: 0
PSCL5 LOAD TRANSLATION ACCESS:       2236  HIT:       2236  MISS:          0  HIT %:        100  MISS %:          0   MPKI: 0
PSCL5 PREFETCH  REQUESTED:          0  ISSUED:          0  USEFUL:          0  USELESS:          0
PSCL5 USEFUL LOAD PREFETCHES:          0 PREFETCH ISSUED TO LOWER LEVEL:          0  ACCURACY: -nan
PSCL5 TIMELY PREFETCHES:          0 LATE PREFETCHES: 0 DROPPED PREFETCHES: 0
PSCL5 PREFETCHES SAME FILL-ORIGIN LEVEL: 0 DIFFERENT FILL-ORIGIN LEVEL: 0

PSCL4 TOTAL     ACCESS:       2081  HIT:       2069  MISS:         12  HIT %:    99.4234  MISS %:   0.576646   MPKI: 0.00024
PSCL4 LOAD TRANSLATION ACCESS:       2081  HIT:       2069  MISS:         12  HIT %:    99.4234  MISS %:   0.576646   MPKI: 0.00024
PSCL4 PREFETCH  REQUESTED:          0  ISSUED:          0  USEFUL:          0  USELESS:          0
PSCL4 USEFUL LOAD PREFETCHES:          0 PREFETCH ISSUED TO LOWER LEVEL:          0  ACCURACY: -nan
PSCL4 TIMELY PREFETCHES:          0 LATE PREFETCHES: 0 DROPPED PREFETCHES: 0
PSCL4 PREFETCHES SAME FILL-ORIGIN LEVEL: 0 DIFFERENT FILL-ORIGIN LEVEL: 0

PSCL3 TOTAL     ACCESS:       2120  HIT:       2107  MISS:         13  HIT %:    99.3868  MISS %:   0.613208   MPKI: 0.00026
PSCL3 LOAD TRANSLATION ACCESS:       2120  HIT:       2107  MISS:         13  HIT %:    99.3868  MISS %:   0.613208   MPKI: 0.00026
PSCL3 PREFETCH  REQUESTED:          0  ISSUED:          0  USEFUL:          0  USELESS:          0
PSCL3 USEFUL LOAD PREFETCHES:          0 PREFETCH ISSUED TO LOWER LEVEL:          0  ACCURACY: -nan
PSCL3 TIMELY PREFETCHES:          0 LATE PREFETCHES: 0 DROPPED PREFETCHES: 0
PSCL3 PREFETCHES SAME FILL-ORIGIN LEVEL: 0 DIFFERENT FILL-ORIGIN LEVEL: 0

PSCL2 TOTAL     ACCESS:       2236  HIT:       2101  MISS:        135  HIT %:    93.9624  MISS %:    6.03757   MPKI: 0.0027
PSCL2 LOAD TRANSLATION ACCESS:       2236  HIT:       2101  MISS:        135  HIT %:    93.9624  MISS %:    6.03757   MPKI: 0.0027
PSCL2 PREFETCH  REQUESTED:          0  ISSUED:          0  USEFUL:          0  USELESS:          0
PSCL2 USEFUL LOAD PREFETCHES:          0 PREFETCH ISSUED TO LOWER LEVEL:          0  ACCURACY: -nan
PSCL2 TIMELY PREFETCHES:          0 LATE PREFETCHES: 0 DROPPED PREFETCHES: 0
PSCL2 PREFETCHES SAME FILL-ORIGIN LEVEL: 0 DIFFERENT FILL-ORIGIN LEVEL: 0

LLC TOTAL     ACCESS:     961324  HIT:     929031  MISS:      32293  HIT %:    96.6408  MISS %:    3.35922   MPKI: 0.64586
LLC LOAD      ACCESS:     543166  HIT:     538404  MISS:       4762  HIT %:    99.1233  MISS %:   0.876712   MPKI: 0.09524
LLC RFO       ACCESS:      98306  HIT:      82743  MISS:      15563  HIT %:    84.1688  MISS %:    15.8312   MPKI: 0.31126
LLC PREFETCH  ACCESS:     157648  HIT:     145945  MISS:      11703  HIT %:    92.5765  MISS %:     7.4235   MPKI: 0.23406
LLC WRITEBACK ACCESS:     160546  HIT:     160464  MISS:         82  HIT %:    99.9489  MISS %:  0.0510757   MPKI: 0.00164
LLC LOAD TRANSLATION ACCESS:       1658  HIT:       1475  MISS:        183  HIT %:    88.9626  MISS %:    11.0374   MPKI: 0.00366
LLC PREFETCH  REQUESTED:          0  ISSUED:          0  USEFUL:        910  USELESS:       6476
LLC USEFUL LOAD PREFETCHES:        910 PREFETCH ISSUED TO LOWER LEVEL:      11703  ACCURACY: 7.77578
LLC TIMELY PREFETCHES:        910 LATE PREFETCHES: 0 DROPPED PREFETCHES: 0
LLC PREFETCHES SAME FILL-ORIGIN LEVEL: 0 DIFFERENT FILL-ORIGIN LEVEL: 0
LLC AVERAGE MISS LATENCY: 129.813 cycles
LLC RQ	ACCESS:     643131	FORWARD:          0	MERGED:          0	TO_CACHE:     643130
LLC WQ	ACCESS:     160546	FORWARD:          1	MERGED:          0	TO_CACHE:     160546
LLC PQ	ACCESS:     157648	FORWARD:          0	MERGED:          0	TO_CACHE:     157648

LLC Dense regions hint to LLC: 0

RAW hits: 517261
Loads Generated: 12617504
Loads sent to L1D: 12100241
Stores Generated: 6899109
Stores sent to L1D: 6899106
Major fault: 0 Minor fault: 2264
Allocated PAGES: 2264

stream: 
stream:times selected: 1052096
stream:pref_filled: 113881
stream:pref_useful: 17947
stream:pref_late: 32018
stream:misses: 7556
stream:misses_by_poll: 0

CS: 
CS:times selected: 143467
CS:pref_filled: 64474
CS:pref_useful: 45255
CS:pref_late: 4292
CS:misses: 10302
CS:misses_by_poll: 17

CPLX: 
CPLX:times selected: 906744
CPLX:pref_filled: 24878
CPLX:pref_useful: 5032
CPLX:pref_late: 2379
CPLX:misses: 93924
CPLX:misses_by_poll: 1

NL_L1: 
NL:times selected: 6101
NL:pref_filled: 551
NL:pref_useful: 88
NL:pref_late: 13
NL:misses: 370
NL:misses_by_poll: 0

total selections: 2108408
total_filled: 174955
total_useful: 57821
total_late: 40882
total_polluted: 18
total_misses_after_warmup: 800432
conflicts: 3239376
Degree Incremented Times: 0
Degree Decremented Times: 162001

L1 IP Table Write Accesses: 5303496
L1 IP Table Read Accesses: 2064120
L1 RST Write Accesses: 889120
L1 RST Read Accesses: 1778240
L1 CSPT Write Accesses: 889120
L1 CSPT Read Accesses: 1653750
L1 RR Filter Tag Write Accesses: 563028
L1 RR Filter Tag Read Accesses: 40580110
L1 IP Table Tag Write Accesses: 8838425
L1 IP Table Tag Read Accesses: 8838425
L1 RST Tag Write Accesses: 0
L1 RST Tag Read Accesses: 7617579
L1 RR Filter Write Accesses: 0
L1 RR Filter Read Accesses: 1485100
test: 146492
L2 IP Table Read Accesses: 1239027
L2 IP Table Write Accesses: 1683631
L2 IP Table Tag Read Accesses: 936657
L2 IP Table Tag Write Accesses: 936657

DRAM Statistics
 CHANNEL 0
 RQ ROW_BUFFER_HIT:      16728  ROW_BUFFER_MISS:      15474
 DBUS_CONGESTED:          3
 WQ ROW_BUFFER_HIT:        683  ROW_BUFFER_MISS:       6016  FULL:          0

 AVG_CONGESTED_CYCLE: 6
 All warmup complete: 2
Channel 0 Bank busy for read cycles: 0
Channel 0 Bank busy for write cycles: 0
Channel 0
Rank 0
0banks busy for read cycles: 123604210
0banks busy for write cycles: 1972
1banks busy for read cycles: 656303
1banks busy for write cycles: 227194
2banks busy for read cycles: 471014
2banks busy for write cycles: 81846
3banks busy for read cycles: 92766
3banks busy for write cycles: 33322
4banks busy for read cycles: 75062
4banks busy for write cycles: 24188
5banks busy for read cycles: 36509
5banks busy for write cycles: 19326
6banks busy for read cycles: 31950
6banks busy for write cycles: 15839
7banks busy for read cycles: 26769
7banks busy for write cycles: 17581
8banks busy for read cycles: 53036
8banks busy for write cycles: 37628

CPU 0 Branch Prediction Accuracy: 91.6418% MPKI: 15.2922 Average ROB Occupancy at Mispredict: 17.358
Branch types
NOT_BRANCH: 40851796 81.7036%
BRANCH_DIRECT_JUMP: 522633 1.04527%
BRANCH_INDIRECT: 204723 0.409446%
BRANCH_CONDITIONAL: 6214819 12.4296%
BRANCH_DIRECT_CALL: 929734 1.85947%
BRANCH_INDIRECT_CALL: 173167 0.346334%
BRANCH_RETURN: 1102880 2.20576%
BRANCH_OTHER: 0 0%

@sumon_overall_L1D     57821     39349    117147    174955   1125808   1125808
@Sumon_Early_by_class_L1D     13865     39433      3796         8
@Sumon_Late_by_class_L1D     31205      4087      2040         8

@Sumon_Early_by_cycle_L1D     44076      3687      1882       984       402      2821       940      1547       279       888       251        64
@Sumon_Late_by_cycle_L1D     38477       840        29         3         0         0         0         0         0         0         0         0
@Sumon_Early_stream_L1D      6554      1722      1058       834       284       577       716       967       211       665       235        42
@Sumon_Early_CS_L1D     34882      1668       654        47        55      1786        17       276         3        45         0         0
@Sumon_Early_CPLX_L1D      2297       194       143        72        49       407       195       250        43       109        15        22
@Sumon_Late_stream_L1D     30873       331         1         0         0         0         0         0         0         0         0         0
@Sumon_Late_CS_L1D      3560       496        28         3         0         0         0         0         0         0         0         0
@Sumon_Late_CPLX_L1D      2031         9         0         0         0         0         0         0         0         0         0         0
@sumon_overall_L2C     30047      2302    125228    155346    627815    627815
@Sumon_Early_by_class_L2C      2193       388       582         0
@Sumon_Late_by_class_L2C         0         0         0         0

@Sumon_Early_by_cycle_L2C      5403      2857      2293      2336       947      3420      2383      1949      1041      1685       975      4758
@Sumon_Late_by_cycle_L2C      1971       331         0         0         0         0         0         0         0         0         0         0
@Sumon_Early_stream_L2C        19        31         1         3         0         5        15        30        68        82       354      1585
@Sumon_Early_CS_L2C        18        74         6         3         2         0         0         0         3         1         3       278
@Sumon_Early_CPLX_L2C         5         1         0         0         0         1         1        11        56        31       116       360
@Sumon_Late_stream_L2C         0         0         0         0         0         0         0         0         0         0         0         0
@Sumon_Late_CS_L2C         0         0         0         0         0         0         0         0         0         0         0         0
@Sumon_Late_CPLX_L2C         0         0         0         0         0         0         0         0         0         0         0         0
DRAM PAGES: 1048576
Allocated PAGES: 2264
