
*** ChampSim Multicore Out-of-Order Simulator ***

Warmup Instructions: 10000000
Simulation Instructions: 50000000
Number of CPUs: 1
LLC sets: 2048
LLC ways: 16
Off-chip DRAM Size: 4096 MB Channels: 1 Width: 64-bit Data Rate: 6400 MT/s
CPU 0 runs traces/SPEC2017/602.gcc_s-1850B.champsimtrace.xz
.xz
CPU 0 Bimodal branch predictor
BTB has LRU replacement policy
ITLB has LRU replacement policy
DTLB has LRU replacement policy
STLB has LRU replacement policy
L1I has LRU replacement policy
IP Table Entries: 256
Initialize DRRIP state for L1D
IP_Table L2 entries: 256
L2C has LRU replacement policy
LLC has LRU replacement policy
Heartbeat CPU 0 instructions: 10000002 cycles: 3263258 heartbeat IPC: 3.06442 cumulative IPC: 3.06442 (Simulation time: 0 hr 25 min 29 sec) 

Warmup complete CPU 0 instructions: 10000002 cycles: 3263258 (Simulation time: 0 hr 25 min 29 sec) 

Heartbeat CPU 0 instructions: 20000000 cycles: 33688908 heartbeat IPC: 0.32867 cumulative IPC: 0.32867 (Simulation time: 0 hr 46 min 49 sec) 
Heartbeat CPU 0 instructions: 30000000 cycles: 64109274 heartbeat IPC: 0.328727 cumulative IPC: 0.328699 (Simulation time: 1 hr 8 min 23 sec) 
Heartbeat CPU 0 instructions: 40000000 cycles: 94553069 heartbeat IPC: 0.328474 cumulative IPC: 0.328624 (Simulation time: 1 hr 29 min 42 sec) 
Heartbeat CPU 0 instructions: 50000000 cycles: 124945764 heartbeat IPC: 0.329026 cumulative IPC: 0.328724 (Simulation time: 1 hr 49 min 51 sec) 
Heartbeat CPU 0 instructions: 60000003 cycles: 155345874 heartbeat IPC: 0.328946 cumulative IPC: 0.328769 (Simulation time: 2 hr 3 min 52 sec) 
Finished CPU 0 instructions: 50000001 cycles: 152082616 cumulative IPC: 0.328769 (Simulation time: 2 hr 3 min 52 sec) 

ChampSim completed all CPUs

Region of Interest Statistics

CPU 0 cumulative IPC: 0.328769 instructions: 50000001 cycles: 152082616
ITLB TOTAL     ACCESS:    7742183  HIT:    7742183  MISS:          0  HIT %:        100  MISS %:          0   MPKI: 0
ITLB LOAD TRANSLATION ACCESS:    7742183  HIT:    7742183  MISS:          0  HIT %:        100  MISS %:          0   MPKI: 0
ITLB PREFETCH  REQUESTED:          0  ISSUED:          0  USEFUL:          0  USELESS:          0
ITLB USEFUL LOAD PREFETCHES:          0 PREFETCH ISSUED TO LOWER LEVEL:          0  ACCURACY: -nan
ITLB TIMELY PREFETCHES:          0 LATE PREFETCHES: 0 DROPPED PREFETCHES: 0
ITLB PREFETCHES SAME FILL-ORIGIN LEVEL: 0 DIFFERENT FILL-ORIGIN LEVEL: 0
ITLB AVERAGE MISS LATENCY: -nan cycles
ITLB RQ	ACCESS:    8571789	FORWARD:          0	MERGED:     829606	TO_CACHE:    7742183

DTLB TOTAL     ACCESS:   14942213  HIT:   14925821  MISS:      16392  HIT %:    99.8903  MISS %:   0.109703   MPKI: 0.32784
DTLB LOAD TRANSLATION ACCESS:   14942213  HIT:   14925821  MISS:      16392  HIT %:    99.8903  MISS %:   0.109703   MPKI: 0.32784
DTLB PREFETCH  REQUESTED:          0  ISSUED:          0  USEFUL:          0  USELESS:          0
DTLB USEFUL LOAD PREFETCHES:          0 PREFETCH ISSUED TO LOWER LEVEL:          0  ACCURACY: -nan
DTLB TIMELY PREFETCHES:          0 LATE PREFETCHES: 0 DROPPED PREFETCHES: 0
DTLB PREFETCHES SAME FILL-ORIGIN LEVEL: 0 DIFFERENT FILL-ORIGIN LEVEL: 0
DTLB AVERAGE MISS LATENCY: 142.664 cycles
DTLB RQ	ACCESS:   15256885	FORWARD:          0	MERGED:     314521	TO_CACHE:   14942364

STLB TOTAL     ACCESS:    1891153  HIT:    1875967  MISS:      15186  HIT %:     99.197  MISS %:   0.803002   MPKI: 0.30372
STLB LOAD TRANSLATION ACCESS:      16392  HIT:       1206  MISS:      15186  HIT %:    7.35725  MISS %:    92.6428   MPKI: 0.30372
STLB TRANSLATION FROM L1D PREFETCHER ACCESS:    1874761  HIT:    1874761  MISS:          0  HIT %:        100  MISS %:          0   MPKI: 0
STLB PREFETCH  REQUESTED:          0  ISSUED:          0  USEFUL:          0  USELESS:          0
STLB USEFUL LOAD PREFETCHES:          0 PREFETCH ISSUED TO LOWER LEVEL:          0  ACCURACY: -nan
STLB TIMELY PREFETCHES:          0 LATE PREFETCHES: 0 DROPPED PREFETCHES: 0
STLB PREFETCHES SAME FILL-ORIGIN LEVEL: 0 DIFFERENT FILL-ORIGIN LEVEL: 0
STLB AVERAGE MISS LATENCY: 144.254 cycles
STLB RQ	ACCESS:    3620417	FORWARD:          0	MERGED:    1729264	TO_CACHE:    1891153

STLB Hit, L1D data hit: 0
STLB Hit, L2C data hit: 0
STLB Hit, LLC data hit: 0
STLB Hit, LLC data miss: 0
STLB STLB hints to L2: 0
L1D TOTAL     ACCESS:   18846563  HIT:   17412179  MISS:    1434384  HIT %:    92.3891  MISS %:    7.61085   MPKI: 28.6877
L1D LOAD      ACCESS:   10935656  HIT:   10821913  MISS:     113743  HIT %:    98.9599  MISS %:    1.04011   MPKI: 2.27486
L1D RFO       ACCESS:    4315584  HIT:    4315323  MISS:        261  HIT %:     99.994  MISS %: 0.00604785   MPKI: 0.00522
L1D PREFETCH  ACCESS:    3595323  HIT:    2274943  MISS:    1320380  HIT %:    63.2751  MISS %:    36.7249   MPKI: 26.4076
L1D PREFETCH  REQUESTED:    7208080  ISSUED:    7208050  USEFUL:     996337  USELESS:     324045
L1D USEFUL LOAD PREFETCHES:     996337 PREFETCH ISSUED TO LOWER LEVEL:    1327689  ACCURACY: 75.043
L1D TIMELY PREFETCHES:     996337 LATE PREFETCHES: 6924 DROPPED PREFETCHES: 0
L1D PREFETCHES SAME FILL-ORIGIN LEVEL: 1327689 DIFFERENT FILL-ORIGIN LEVEL: 0
L1D AVERAGE MISS LATENCY: 381614 cycles
L1D RQ	ACCESS:   13897925	FORWARD:          0	MERGED:    2956626	TO_CACHE:   10941299
L1D WQ	ACCESS:    4852413	FORWARD:          0	MERGED:     536827	TO_CACHE:    4315586
L1D PQ	ACCESS:    3604025	FORWARD:          0	MERGED:          0	TO_CACHE:    3604025

L1D UNIQUE REGIONS ACCESSED: 0
L1D REGIONS CONFLICTS: 0
L1D Cross Page Prefetch Requests: 0
L1D Same Page Prefetch Requests: 4232517
L1D ROI Sum of L1D PQ occupancy: 48617233
L1D PREFETCHES PUSHED FROM L2C: 0
L1I TOTAL     ACCESS:    8571788  HIT:    8571788  MISS:          0  HIT %:        100  MISS %:          0   MPKI: 0
L1I LOAD      ACCESS:    8571788  HIT:    8571788  MISS:          0  HIT %:        100  MISS %:          0   MPKI: 0
L1I PREFETCH  REQUESTED:          0  ISSUED:          0  USEFUL:          0  USELESS:          0
L1I USEFUL LOAD PREFETCHES:          0 PREFETCH ISSUED TO LOWER LEVEL:          0  ACCURACY: -nan
L1I TIMELY PREFETCHES:          0 LATE PREFETCHES: 0 DROPPED PREFETCHES: 0
L1I PREFETCHES SAME FILL-ORIGIN LEVEL: 0 DIFFERENT FILL-ORIGIN LEVEL: 0
L1I AVERAGE MISS LATENCY: -nan cycles
L1I RQ	ACCESS:   13331255	FORWARD:          0	MERGED:    4759466	TO_CACHE:    8571789

BTB TOTAL     ACCESS:    8191456  HIT:    8191427  MISS:         29  HIT %:    99.9996  MISS %: 0.000354027   MPKI: 0.00058
BTB BRANCH_DIRECT_JUMP	ACCESS:    1079511  HIT:    1079502  MISS:          9
BTB BRANCH_INDIRECT	ACCESS:          0  HIT:          0  MISS:          0
BTB BRANCH_CONDITIONAL	ACCESS:    6031849  HIT:    6031835  MISS:         14
BTB BRANCH_DIRECT_CALL	ACCESS:     540048  HIT:     540045  MISS:          3
BTB BRANCH_INDIRECT_CALL	ACCESS:          0  HIT:          0  MISS:          0
BTB BRANCH_RETURN	ACCESS:     540048  HIT:     540045  MISS:          3
BTB BRANCH_OTHER ACCESS:          0  HIT:          0  MISS:          0

L2C TOTAL     ACCESS:    4670873  HIT:    3739165  MISS:     931708  HIT %:    80.0528  MISS %:    19.9472   MPKI: 18.6342
L2C LOAD      ACCESS:     106810  HIT:      89689  MISS:      17121  HIT %:    83.9706  MISS %:    16.0294   MPKI: 0.34242
L2C DATA LOAD MPKI: 0.34242
L2C INSTRUCTION LOAD MPKI: 0
L2C RFO       ACCESS:        260  HIT:        254  MISS:          6  HIT %:    97.6923  MISS %:    2.30769   MPKI: 0.00012
L2C PREFETCH  ACCESS:    4545488  HIT:    3633585  MISS:     911903  HIT %:    79.9383  MISS %:    20.0617   MPKI: 18.2381
L2C DATA PREFETCH MPKI: 18.2381
L2C INSTRUCTION PREFETCH MPKI: 0
L2C WRITEBACK ACCESS:       3064  HIT:       3062  MISS:          2  HIT %:    99.9347  MISS %:  0.0652742   MPKI: 4e-05
L2C LOAD TRANSLATION ACCESS:      15251  HIT:      12575  MISS:       2676  HIT %:    82.4536  MISS %:    17.5464   MPKI: 0.05352
L2C PREFETCH  REQUESTED:    4508187  ISSUED:    4508007  USEFUL:      17530  USELESS:     894338
L2C USEFUL LOAD PREFETCHES:      17530 PREFETCH ISSUED TO LOWER LEVEL:     911949  ACCURACY: 1.92226
L2C TIMELY PREFETCHES:      17530 LATE PREFETCHES: 46 DROPPED PREFETCHES: 0
L2C PREFETCHES SAME FILL-ORIGIN LEVEL: 685195 DIFFERENT FILL-ORIGIN LEVEL: 0
L2C AVERAGE MISS LATENCY: 107.672 cycles
L2C RQ	ACCESS:     122331	FORWARD:          0	MERGED:          0	TO_CACHE:     122321
L2C WQ	ACCESS:       3064	FORWARD:         10	MERGED:          0	TO_CACHE:       3064
L2C PQ	ACCESS:    5835309	FORWARD:          0	MERGED:    1016514	TO_CACHE:    4818795

L2C Instructions Evicting Data 0
L2C Translations Evicting Data 2671
L2C Data Evicting Data 926351
L2C Instructions Evicting Instructions 0
L2C Translations Evicting Instructions 0
L2C Data Evicting Instructions 0
L2C Instructions Evicting Translations 0
L2C Translations Evicting Translations 5
L2C Data Evicting Translations 2679
L2C Dense regions hint from L2: 0
PSCL5 TOTAL     ACCESS:      15186  HIT:      15186  MISS:          0  HIT %:        100  MISS %:          0   MPKI: 0
PSCL5 LOAD TRANSLATION ACCESS:      15186  HIT:      15186  MISS:          0  HIT %:        100  MISS %:          0   MPKI: 0
PSCL5 PREFETCH  REQUESTED:          0  ISSUED:          0  USEFUL:          0  USELESS:          0
PSCL5 USEFUL LOAD PREFETCHES:          0 PREFETCH ISSUED TO LOWER LEVEL:          0  ACCURACY: -nan
PSCL5 TIMELY PREFETCHES:          0 LATE PREFETCHES: 0 DROPPED PREFETCHES: 0
PSCL5 PREFETCHES SAME FILL-ORIGIN LEVEL: 0 DIFFERENT FILL-ORIGIN LEVEL: 0

PSCL4 TOTAL     ACCESS:      15186  HIT:      15186  MISS:          0  HIT %:        100  MISS %:          0   MPKI: 0
PSCL4 LOAD TRANSLATION ACCESS:      15186  HIT:      15186  MISS:          0  HIT %:        100  MISS %:          0   MPKI: 0
PSCL4 PREFETCH  REQUESTED:          0  ISSUED:          0  USEFUL:          0  USELESS:          0
PSCL4 USEFUL LOAD PREFETCHES:          0 PREFETCH ISSUED TO LOWER LEVEL:          0  ACCURACY: -nan
PSCL4 TIMELY PREFETCHES:          0 LATE PREFETCHES: 0 DROPPED PREFETCHES: 0
PSCL4 PREFETCHES SAME FILL-ORIGIN LEVEL: 0 DIFFERENT FILL-ORIGIN LEVEL: 0

PSCL3 TOTAL     ACCESS:      15186  HIT:      15186  MISS:          0  HIT %:        100  MISS %:          0   MPKI: 0
PSCL3 LOAD TRANSLATION ACCESS:      15186  HIT:      15186  MISS:          0  HIT %:        100  MISS %:          0   MPKI: 0
PSCL3 PREFETCH  REQUESTED:          0  ISSUED:          0  USEFUL:          0  USELESS:          0
PSCL3 USEFUL LOAD PREFETCHES:          0 PREFETCH ISSUED TO LOWER LEVEL:          0  ACCURACY: -nan
PSCL3 TIMELY PREFETCHES:          0 LATE PREFETCHES: 0 DROPPED PREFETCHES: 0
PSCL3 PREFETCHES SAME FILL-ORIGIN LEVEL: 0 DIFFERENT FILL-ORIGIN LEVEL: 0

PSCL2 TOTAL     ACCESS:      15186  HIT:      15015  MISS:        171  HIT %:     98.874  MISS %:    1.12604   MPKI: 0.00342
PSCL2 LOAD TRANSLATION ACCESS:      15186  HIT:      15015  MISS:        171  HIT %:     98.874  MISS %:    1.12604   MPKI: 0.00342
PSCL2 PREFETCH  REQUESTED:          0  ISSUED:          0  USEFUL:          0  USELESS:          0
PSCL2 USEFUL LOAD PREFETCHES:          0 PREFETCH ISSUED TO LOWER LEVEL:          0  ACCURACY: -nan
PSCL2 TIMELY PREFETCHES:          0 LATE PREFETCHES: 0 DROPPED PREFETCHES: 0
PSCL2 PREFETCHES SAME FILL-ORIGIN LEVEL: 0 DIFFERENT FILL-ORIGIN LEVEL: 0

LLC TOTAL     ACCESS:     932970  HIT:       9423  MISS:     923547  HIT %:       1.01  MISS %:      98.99   MPKI: 18.4709
LLC LOAD      ACCESS:      17075  HIT:        176  MISS:      16899  HIT %:    1.03075  MISS %:    98.9693   MPKI: 0.33798
LLC RFO       ACCESS:          6  HIT:          0  MISS:          6  HIT %:          0  MISS %:        100   MPKI: 0.00012
LLC PREFETCH  ACCESS:     911949  HIT:       7804  MISS:     904145  HIT %:    0.85575  MISS %:    99.1443   MPKI: 18.0829
LLC WRITEBACK ACCESS:       1264  HIT:       1262  MISS:          2  HIT %:    99.8418  MISS %:   0.158228   MPKI: 4e-05
LLC LOAD TRANSLATION ACCESS:       2676  HIT:        181  MISS:       2495  HIT %:    6.76383  MISS %:    93.2362   MPKI: 0.0499
LLC PREFETCH  REQUESTED:          0  ISSUED:          0  USEFUL:         86  USELESS:     904013
LLC USEFUL LOAD PREFETCHES:         86 PREFETCH ISSUED TO LOWER LEVEL:     904145  ACCURACY: 0.00951175
LLC TIMELY PREFETCHES:         86 LATE PREFETCHES: 0 DROPPED PREFETCHES: 0
LLC PREFETCHES SAME FILL-ORIGIN LEVEL: 0 DIFFERENT FILL-ORIGIN LEVEL: 0
LLC AVERAGE MISS LATENCY: 78.3109 cycles
LLC RQ	ACCESS:      19757	FORWARD:          0	MERGED:          0	TO_CACHE:      19757
LLC WQ	ACCESS:       1264	FORWARD:          0	MERGED:          0	TO_CACHE:       1264
LLC PQ	ACCESS:     911949	FORWARD:          0	MERGED:          0	TO_CACHE:     911949

LLC Dense regions hint to LLC: 0

RAW hits: 0
Loads Generated: 13897925
Loads sent to L1D: 13897925
Stores Generated: 4852411
Stores sent to L1D: 4852413
Major fault: 0 Minor fault: 18384
Allocated PAGES: 18384

stream: 
stream:times selected: 6542996
stream:pref_filled: 1158502
stream:pref_useful: 880590
stream:pref_late: 2572
stream:misses: 9309
stream:misses_by_poll: 0

CS: 
CS:times selected: 2471400
CS:pref_filled: 102410
CS:pref_useful: 93908
CS:pref_late: 3755
CS:misses: 49395
CS:misses_by_poll: 854

CPLX: 
CPLX:times selected: 4066421
CPLX:pref_filled: 318010
CPLX:pref_useful: 220301
CPLX:pref_late: 1128
CPLX:misses: 67902
CPLX:misses_by_poll: 2131

NL_L1: 
NL:times selected: 30346
NL:pref_filled: 515
NL:pref_useful: 307
NL:pref_late: 21
NL:misses: 1075
NL:misses_by_poll: 1

total selections: 13111163
total_filled: 1320380
total_useful: 996337
total_late: 7684
total_polluted: 2986
total_misses_after_warmup: 119386
conflicts: 0
Degree Incremented Times: 96635
Degree Decremented Times: 0

L1 IP Table Write Accesses: 10936467
L1 IP Table Read Accesses: 10936467
L1 RST Write Accesses: 5521072
L1 RST Read Accesses: 11042144
L1 CSPT Write Accesses: 5521072
L1 CSPT Read Accesses: 15028315
L1 RR Filter Tag Write Accesses: 3604055
L1 RR Filter Tag Read Accesses: 864890207
L1 IP Table Tag Write Accesses: 10941299
L1 IP Table Tag Read Accesses: 10941299
L1 RST Tag Write Accesses: 0
L1 RST Tag Read Accesses: 49326516
L1 RR Filter Write Accesses: 0
L1 RR Filter Read Accesses: 39459092
test: 1099031
L2 IP Table Read Accesses: 2306974
L2 IP Table Write Accesses: 2200164
L2 IP Table Tag Read Accesses: 1153487
L2 IP Table Tag Write Accesses: 1153487

DRAM Statistics
 CHANNEL 0
 RQ ROW_BUFFER_HIT:     859164  ROW_BUFFER_MISS:      64381
 DBUS_CONGESTED:         16
 WQ ROW_BUFFER_HIT:        218  ROW_BUFFER_MISS:       1045  FULL:          0

 AVG_CONGESTED_CYCLE: 4
 All warmup complete: 2
Channel 0 Bank busy for read cycles: 0
Channel 0 Bank busy for write cycles: 0
Channel 0
Rank 0
0banks busy for read cycles: 123898466
0banks busy for write cycles: 759
1banks busy for read cycles: 16936414
1banks busy for write cycles: 100851
2banks busy for read cycles: 5919279
2banks busy for write cycles: 26989
3banks busy for read cycles: 2109359
3banks busy for write cycles: 9169
4banks busy for read cycles: 916024
4banks busy for write cycles: 5028
5banks busy for read cycles: 496983
5banks busy for write cycles: 2302
6banks busy for read cycles: 463407
6banks busy for write cycles: 1022
7banks busy for read cycles: 975401
7banks busy for write cycles: 1272
8banks busy for read cycles: 219428
8banks busy for write cycles: 464

CPU 0 Branch Prediction Accuracy: 92.2655% MPKI: 19.8309 Average ROB Occupancy at Mispredict: 30.6032
Branch types
NOT_BRANCH: 37179936 74.3599%
BRANCH_DIRECT_JUMP: 1079511 2.15902%
BRANCH_INDIRECT: 0 0%
BRANCH_CONDITIONAL: 10660171 21.3203%
BRANCH_DIRECT_CALL: 540048 1.0801%
BRANCH_INDIRECT_CALL: 0 0%
BRANCH_RETURN: 540048 1.0801%
BRANCH_OTHER: 0 0%

@sumon_overall_L1D    996337      6924    324045   1320380   7208050   7208080
@Sumon_Early_by_class_L1D    724843     77126    194122        21
@Sumon_Late_by_class_L1D      2032      3587      1101        21

@Sumon_Early_by_cycle_L1D     48508     95112     84376    122612    113402    392197     70561     27425     22218     19094       753        79
@Sumon_Late_by_cycle_L1D      6850        74         0         0         0         0         0         0         0         0         0         0
@Sumon_Early_stream_L1D     27250     84098     62621     96142     90181    313546     16339      5900     13540     15146        80         0
@Sumon_Early_CS_L1D     18575      6775     13637     15538     10181      6263       415      2227      2799       715         1         0
@Sumon_Early_CPLX_L1D      2642      4128      8032     10929     13040     72388     53805     19297      5877      3233       672        79
@Sumon_Late_stream_L1D      2018        14         0         0         0         0         0         0         0         0         0         0
@Sumon_Late_CS_L1D      3532        55         0         0         0         0         0         0         0         0         0         0
@Sumon_Late_CPLX_L1D      1099         2         0         0         0         0         0         0         0         0         0         0
@sumon_overall_L2C     17530        46    894338    911903   4508007   4508187
@Sumon_Early_by_class_L2C     14919      1591      1011         0
@Sumon_Late_by_class_L2C        26        16         0         0

@Sumon_Early_by_cycle_L2C       370       348       755      1321      1035      6496      2182       115        93       112      1397      3306
@Sumon_Late_by_cycle_L2C        44         2         0         0         0         0         0         0         0         0         0         0
@Sumon_Early_stream_L2C       299       285       551       953       761      5606      2025        37        73        90      1252      2987
@Sumon_Early_CS_L2C        71        58       170       313       236       575        15         5         3         7        48        90
@Sumon_Early_CPLX_L2C         0         4        30        54        38       314       142        73        15        15        97       229
@Sumon_Late_stream_L2C        24         2         0         0         0         0         0         0         0         0         0         0
@Sumon_Late_CS_L2C        16         0         0         0         0         0         0         0         0         0         0         0
@Sumon_Late_CPLX_L2C         0         0         0         0         0         0         0         0         0         0         0         0
DRAM PAGES: 1048576
Allocated PAGES: 18384
