
*** ChampSim Multicore Out-of-Order Simulator ***

Warmup Instructions: 10000000
Simulation Instructions: 50000000
Number of CPUs: 1
LLC sets: 2048
LLC ways: 16
Off-chip DRAM Size: 4096 MB Channels: 1 Width: 64-bit Data Rate: 6400 MT/s
CPU 0 runs traces/SPEC2017/605.mcf_s-1554B.champsimtrace.xz
.xz
CPU 0 Bimodal branch predictor
BTB has LRU replacement policy
ITLB has LRU replacement policy
DTLB has LRU replacement policy
STLB has LRU replacement policy
L1I has LRU replacement policy
IP Table Entries: 256
Initialize DRRIP state for L1D
IP_Table L2 entries: 256
L2C has LRU replacement policy
LLC has LRU replacement policy
Heartbeat CPU 0 instructions: 10000001 cycles: 3509930 heartbeat IPC: 2.84906 cumulative IPC: 2.84906 (Simulation time: 0 hr 37 min 7 sec) 

Warmup complete CPU 0 instructions: 10000001 cycles: 3509930 (Simulation time: 0 hr 37 min 7 sec) 

Heartbeat CPU 0 instructions: 20000000 cycles: 39353677 heartbeat IPC: 0.278989 cumulative IPC: 0.278989 (Simulation time: 1 hr 28 min 45 sec) 
Heartbeat CPU 0 instructions: 30000003 cycles: 74880128 heartbeat IPC: 0.28148 cumulative IPC: 0.280229 (Simulation time: 2 hr 7 min 19 sec) 
Heartbeat CPU 0 instructions: 40000000 cycles: 110632870 heartbeat IPC: 0.279699 cumulative IPC: 0.280052 (Simulation time: 2 hr 22 min 9 sec) 
Heartbeat CPU 0 instructions: 50000001 cycles: 146470636 heartbeat IPC: 0.279035 cumulative IPC: 0.279797 (Simulation time: 2 hr 29 min 55 sec) 
Heartbeat CPU 0 instructions: 60000002 cycles: 182153857 heartbeat IPC: 0.280244 cumulative IPC: 0.279886 (Simulation time: 2 hr 32 min 25 sec) 
Finished CPU 0 instructions: 50000001 cycles: 178643927 cumulative IPC: 0.279886 (Simulation time: 2 hr 32 min 25 sec) 

ChampSim completed all CPUs

Region of Interest Statistics

CPU 0 cumulative IPC: 0.279886 instructions: 50000001 cycles: 178643927
ITLB TOTAL     ACCESS:   10561544  HIT:   10561544  MISS:          0  HIT %:        100  MISS %:          0   MPKI: 0
ITLB LOAD TRANSLATION ACCESS:   10561544  HIT:   10561544  MISS:          0  HIT %:        100  MISS %:          0   MPKI: 0
ITLB PREFETCH  REQUESTED:          0  ISSUED:          0  USEFUL:          0  USELESS:          0
ITLB USEFUL LOAD PREFETCHES:          0 PREFETCH ISSUED TO LOWER LEVEL:          0  ACCURACY: -nan
ITLB TIMELY PREFETCHES:          0 LATE PREFETCHES: 0 DROPPED PREFETCHES: 0
ITLB PREFETCHES SAME FILL-ORIGIN LEVEL: 0 DIFFERENT FILL-ORIGIN LEVEL: 0
ITLB AVERAGE MISS LATENCY: -nan cycles
ITLB RQ	ACCESS:   12805650	FORWARD:          0	MERGED:    2244106	TO_CACHE:   10561544

DTLB TOTAL     ACCESS:   16109200  HIT:   15912051  MISS:     197149  HIT %:    98.7762  MISS %:    1.22383   MPKI: 3.94298
DTLB LOAD TRANSLATION ACCESS:   16109200  HIT:   15912051  MISS:     197149  HIT %:    98.7762  MISS %:    1.22383   MPKI: 3.94298
DTLB PREFETCH  REQUESTED:          0  ISSUED:          0  USEFUL:          0  USELESS:          0
DTLB USEFUL LOAD PREFETCHES:          0 PREFETCH ISSUED TO LOWER LEVEL:          0  ACCURACY: -nan
DTLB TIMELY PREFETCHES:          0 LATE PREFETCHES: 0 DROPPED PREFETCHES: 0
DTLB PREFETCHES SAME FILL-ORIGIN LEVEL: 0 DIFFERENT FILL-ORIGIN LEVEL: 0
DTLB AVERAGE MISS LATENCY: 13.191 cycles
DTLB RQ	ACCESS:   19679299	FORWARD:          0	MERGED:    3564702	TO_CACHE:   16114597

STLB TOTAL     ACCESS:    6363043  HIT:    6358620  MISS:       4423  HIT %:    99.9305  MISS %:  0.0695108   MPKI: 0.08846
STLB LOAD TRANSLATION ACCESS:     197149  HIT:     192727  MISS:       4422  HIT %:     97.757  MISS %:    2.24297   MPKI: 0.08844
STLB TRANSLATION FROM L1D PREFETCHER ACCESS:    6165894  HIT:    6165893  MISS:          1  HIT %:        100  MISS %: 1.62182e-05   MPKI: 2e-05
STLB PREFETCH  REQUESTED:          0  ISSUED:          0  USEFUL:          1  USELESS:          0
STLB USEFUL LOAD PREFETCHES:          1 PREFETCH ISSUED TO LOWER LEVEL:          0  ACCURACY: inf
STLB TIMELY PREFETCHES:          1 LATE PREFETCHES: 0 DROPPED PREFETCHES: 0
STLB PREFETCHES SAME FILL-ORIGIN LEVEL: 0 DIFFERENT FILL-ORIGIN LEVEL: 0
STLB AVERAGE MISS LATENCY: 186.21 cycles
STLB RQ	ACCESS:   19891384	FORWARD:          0	MERGED:   13528342	TO_CACHE:    6363042

STLB Hit, L1D data hit: 0
STLB Hit, L2C data hit: 0
STLB Hit, LLC data hit: 0
STLB Hit, LLC data miss: 0
STLB STLB hints to L2: 0
L1D TOTAL     ACCESS:   34708238  HIT:   21976435  MISS:   12731803  HIT %:    63.3176  MISS %:    36.6824   MPKI: 254.636
L1D LOAD      ACCESS:   16212036  HIT:   12583081  MISS:    3628955  HIT %:    77.6157  MISS %:    22.3843   MPKI: 72.5791
L1D RFO       ACCESS:    2526292  HIT:    2365845  MISS:     160447  HIT %:    93.6489  MISS %:    6.35109   MPKI: 3.20894
L1D PREFETCH  ACCESS:   15969910  HIT:    7027509  MISS:    8942401  HIT %:    44.0047  MISS %:    55.9953   MPKI: 178.848
L1D PREFETCH  REQUESTED:   44261700  ISSUED:   39437759  USEFUL:    3938625  USELESS:    5003677
L1D USEFUL LOAD PREFETCHES:    3938625 PREFETCH ISSUED TO LOWER LEVEL:   10726354  ACCURACY: 36.7191
L1D TIMELY PREFETCHES:    3938625 LATE PREFETCHES: 1783860 DROPPED PREFETCHES: 0
L1D PREFETCHES SAME FILL-ORIGIN LEVEL: 10726354 DIFFERENT FILL-ORIGIN LEVEL: 0
L1D AVERAGE MISS LATENCY: 1.29901e+07 cycles
L1D RQ	ACCESS:   20638013	FORWARD:          0	MERGED:    3935213	TO_CACHE:   16674927
L1D WQ	ACCESS:    3596625	FORWARD:      27873	MERGED:     592253	TO_CACHE:    3004372
L1D PQ	ACCESS:   19743524	FORWARD:          0	MERGED:      49289	TO_CACHE:   19694235

L1D UNIQUE REGIONS ACCESSED: 0
L1D REGIONS CONFLICTS: 0
L1D Cross Page Prefetch Requests: 0
L1D Same Page Prefetch Requests: 22595769
L1D ROI Sum of L1D PQ occupancy: 1000830821
L1D PREFETCHES PUSHED FROM L2C: 0
L1I TOTAL     ACCESS:   12805648  HIT:   12805648  MISS:          0  HIT %:        100  MISS %:          0   MPKI: 0
L1I LOAD      ACCESS:   12805648  HIT:   12805648  MISS:          0  HIT %:        100  MISS %:          0   MPKI: 0
L1I PREFETCH  REQUESTED:          0  ISSUED:          0  USEFUL:          0  USELESS:          0
L1I USEFUL LOAD PREFETCHES:          0 PREFETCH ISSUED TO LOWER LEVEL:          0  ACCURACY: -nan
L1I TIMELY PREFETCHES:          0 LATE PREFETCHES: 0 DROPPED PREFETCHES: 0
L1I PREFETCHES SAME FILL-ORIGIN LEVEL: 0 DIFFERENT FILL-ORIGIN LEVEL: 0
L1I AVERAGE MISS LATENCY: -nan cycles
L1I RQ	ACCESS:   17616089	FORWARD:          0	MERGED:    4810439	TO_CACHE:   12805650

BTB TOTAL     ACCESS:    8799472  HIT:    8799440  MISS:         32  HIT %:    99.9996  MISS %: 0.000363658   MPKI: 0.00064
BTB BRANCH_DIRECT_JUMP	ACCESS:    2054757  HIT:    2054751  MISS:          6
BTB BRANCH_INDIRECT	ACCESS:          0  HIT:          0  MISS:          0
BTB BRANCH_CONDITIONAL	ACCESS:    6743911  HIT:    6743889  MISS:         22
BTB BRANCH_DIRECT_CALL	ACCESS:        402  HIT:        400  MISS:          2
BTB BRANCH_INDIRECT_CALL	ACCESS:          0  HIT:          0  MISS:          0
BTB BRANCH_RETURN	ACCESS:        402  HIT:        400  MISS:          2
BTB BRANCH_OTHER ACCESS:          0  HIT:          0  MISS:          0

L2C TOTAL     ACCESS:   12931700  HIT:     750332  MISS:   12181368  HIT %:    5.80227  MISS %:    94.1977   MPKI: 243.627
L2C LOAD      ACCESS:    1845095  HIT:     152486  MISS:    1692609  HIT %:     8.2644  MISS %:    91.7356   MPKI: 33.8522
L2C DATA LOAD MPKI: 33.8522
L2C INSTRUCTION LOAD MPKI: 0
L2C RFO       ACCESS:     160132  HIT:      11285  MISS:     148847  HIT %:    7.04731  MISS %:    92.9527   MPKI: 2.97694
L2C PREFETCH  ACCESS:   10726523  HIT:     388088  MISS:   10338435  HIT %:    3.61802  MISS %:     96.382   MPKI: 206.769
L2C DATA PREFETCH MPKI: 206.769
L2C INSTRUCTION PREFETCH MPKI: 0
L2C WRITEBACK ACCESS:     195527  HIT:     195245  MISS:        282  HIT %:    99.8558  MISS %:   0.144226   MPKI: 0.00564
L2C LOAD TRANSLATION ACCESS:       4422  HIT:       3228  MISS:       1194  HIT %:    72.9986  MISS %:    27.0014   MPKI: 0.02388
L2C TRANSLATION FROM L1D PREFETCHER ACCESS:          1  HIT:          0  MISS:          1  HIT %:          0  MISS %:        100   MPKI: 2e-05
L2C PREFETCH  REQUESTED:        184  ISSUED:        184  USEFUL:     137263  USELESS:   10201909
L2C USEFUL LOAD PREFETCHES:     137263 PREFETCH ISSUED TO LOWER LEVEL:   10338442  ACCURACY: 1.3277
L2C TIMELY PREFETCHES:     137263 LATE PREFETCHES: 0 DROPPED PREFETCHES: 0
L2C PREFETCHES SAME FILL-ORIGIN LEVEL: 180 DIFFERENT FILL-ORIGIN LEVEL: 0
L2C AVERAGE MISS LATENCY: 159.421 cycles
L2C RQ	ACCESS:    2009882	FORWARD:          0	MERGED:          0	TO_CACHE:    2009652
L2C WQ	ACCESS:     195527	FORWARD:        237	MERGED:          0	TO_CACHE:     195527
L2C PQ	ACCESS:   10726538	FORWARD:          0	MERGED:          0	TO_CACHE:   10726531

L2C Instructions Evicting Data 0
L2C Translations Evicting Data 1195
L2C Data Evicting Data 12178696
L2C Instructions Evicting Instructions 0
L2C Translations Evicting Instructions 0
L2C Data Evicting Instructions 0
L2C Instructions Evicting Translations 0
L2C Translations Evicting Translations 0
L2C Data Evicting Translations 1195
L2C Dense regions hint from L2: 0
PSCL5 TOTAL     ACCESS:       4423  HIT:       4423  MISS:          0  HIT %:        100  MISS %:          0   MPKI: 0
PSCL5 LOAD TRANSLATION ACCESS:       4422  HIT:       4422  MISS:          0  HIT %:        100  MISS %:          0   MPKI: 0
PSCL5 TRANSLATION FROM L1D PREFETCHER ACCESS:          1  HIT:          1  MISS:          0  HIT %:        100  MISS %:          0   MPKI: 0
PSCL5 PREFETCH  REQUESTED:          0  ISSUED:          0  USEFUL:          0  USELESS:          0
PSCL5 USEFUL LOAD PREFETCHES:          0 PREFETCH ISSUED TO LOWER LEVEL:          0  ACCURACY: -nan
PSCL5 TIMELY PREFETCHES:          0 LATE PREFETCHES: 0 DROPPED PREFETCHES: 0
PSCL5 PREFETCHES SAME FILL-ORIGIN LEVEL: 0 DIFFERENT FILL-ORIGIN LEVEL: 0

PSCL4 TOTAL     ACCESS:       4423  HIT:       4423  MISS:          0  HIT %:        100  MISS %:          0   MPKI: 0
PSCL4 LOAD TRANSLATION ACCESS:       4422  HIT:       4422  MISS:          0  HIT %:        100  MISS %:          0   MPKI: 0
PSCL4 TRANSLATION FROM L1D PREFETCHER ACCESS:          1  HIT:          1  MISS:          0  HIT %:        100  MISS %:          0   MPKI: 0
PSCL4 PREFETCH  REQUESTED:          0  ISSUED:          0  USEFUL:          0  USELESS:          0
PSCL4 USEFUL LOAD PREFETCHES:          0 PREFETCH ISSUED TO LOWER LEVEL:          0  ACCURACY: -nan
PSCL4 TIMELY PREFETCHES:          0 LATE PREFETCHES: 0 DROPPED PREFETCHES: 0
PSCL4 PREFETCHES SAME FILL-ORIGIN LEVEL: 0 DIFFERENT FILL-ORIGIN LEVEL: 0

PSCL3 TOTAL     ACCESS:       4423  HIT:       4423  MISS:          0  HIT %:        100  MISS %:          0   MPKI: 0
PSCL3 LOAD TRANSLATION ACCESS:       4422  HIT:       4422  MISS:          0  HIT %:        100  MISS %:          0   MPKI: 0
PSCL3 TRANSLATION FROM L1D PREFETCHER ACCESS:          1  HIT:          1  MISS:          0  HIT %:        100  MISS %:          0   MPKI: 0
PSCL3 PREFETCH  REQUESTED:          0  ISSUED:          0  USEFUL:          0  USELESS:          0
PSCL3 USEFUL LOAD PREFETCHES:          0 PREFETCH ISSUED TO LOWER LEVEL:          0  ACCURACY: -nan
PSCL3 TIMELY PREFETCHES:          0 LATE PREFETCHES: 0 DROPPED PREFETCHES: 0
PSCL3 PREFETCHES SAME FILL-ORIGIN LEVEL: 0 DIFFERENT FILL-ORIGIN LEVEL: 0

PSCL2 TOTAL     ACCESS:       4423  HIT:       4414  MISS:          9  HIT %:    99.7965  MISS %:   0.203482   MPKI: 0.00018
PSCL2 LOAD TRANSLATION ACCESS:       4422  HIT:       4413  MISS:          9  HIT %:    99.7965  MISS %:   0.203528   MPKI: 0.00018
PSCL2 TRANSLATION FROM L1D PREFETCHER ACCESS:          1  HIT:          1  MISS:          0  HIT %:        100  MISS %:          0   MPKI: 0
PSCL2 PREFETCH  REQUESTED:          0  ISSUED:          0  USEFUL:          0  USELESS:          0
PSCL2 USEFUL LOAD PREFETCHES:          0 PREFETCH ISSUED TO LOWER LEVEL:          0  ACCURACY: -nan
PSCL2 TIMELY PREFETCHES:          0 LATE PREFETCHES: 0 DROPPED PREFETCHES: 0
PSCL2 PREFETCHES SAME FILL-ORIGIN LEVEL: 0 DIFFERENT FILL-ORIGIN LEVEL: 0

LLC TOTAL     ACCESS:   12365327  HIT:     193151  MISS:   12172176  HIT %:    1.56204  MISS %:     98.438   MPKI: 243.444
LLC LOAD      ACCESS:    1692609  HIT:       8289  MISS:    1684320  HIT %:   0.489717  MISS %:    99.5103   MPKI: 33.6864
LLC RFO       ACCESS:     148847  HIT:         41  MISS:     148806  HIT %:  0.0275451  MISS %:    99.9725   MPKI: 2.97612
LLC PREFETCH  ACCESS:   10338438  HIT:        713  MISS:   10337725  HIT %: 0.00689659  MISS %:    99.9931   MPKI: 206.754
LLC WRITEBACK ACCESS:     184238  HIT:     183979  MISS:        259  HIT %:    99.8594  MISS %:   0.140579   MPKI: 0.00518
LLC LOAD TRANSLATION ACCESS:       1194  HIT:        129  MISS:       1065  HIT %:     10.804  MISS %:     89.196   MPKI: 0.0213
LLC TRANSLATION FROM L1D PREFETCHER ACCESS:          1  HIT:          0  MISS:          1  HIT %:          0  MISS %:        100   MPKI: 2e-05
LLC PREFETCH  REQUESTED:          0  ISSUED:          0  USEFUL:        140  USELESS:   10341001
LLC USEFUL LOAD PREFETCHES:        140 PREFETCH ISSUED TO LOWER LEVEL:   10337730  ACCURACY: 0.00135426
LLC TIMELY PREFETCHES:        140 LATE PREFETCHES: 0 DROPPED PREFETCHES: 0
LLC PREFETCHES SAME FILL-ORIGIN LEVEL: 0 DIFFERENT FILL-ORIGIN LEVEL: 0
LLC AVERAGE MISS LATENCY: 129.452 cycles
LLC RQ	ACCESS:    1842653	FORWARD:          0	MERGED:          0	TO_CACHE:    1842653
LLC WQ	ACCESS:     184238	FORWARD:          0	MERGED:          0	TO_CACHE:     184238
LLC PQ	ACCESS:   10338442	FORWARD:          0	MERGED:          0	TO_CACHE:   10338442

LLC Dense regions hint to LLC: 0

RAW hits: 2030326
Loads Generated: 22668341
Loads sent to L1D: 20638013
Stores Generated: 3596626
Stores sent to L1D: 3596625
Major fault: 0 Minor fault: 6307
Allocated PAGES: 6307

stream: 
stream:times selected: 12259296
stream:pref_filled: 9547622
stream:pref_useful: 4045208
stream:pref_late: 1374732
stream:misses: 287884
stream:misses_by_poll: 0

CS: 
CS:times selected: 1709014
CS:pref_filled: 98330
CS:pref_useful: 49167
CS:pref_late: 1702
CS:misses: 114529
CS:misses_by_poll: 347

CPLX: 
CPLX:times selected: 10549668
CPLX:pref_filled: 1481695
CPLX:pref_useful: 1001175
CPLX:pref_late: 430186
CPLX:misses: 3985616
CPLX:misses_by_poll: 15661

NL_L1: 
NL:times selected: 20317
NL:pref_filled: 434
NL:pref_useful: 96
NL:pref_late: 3
NL:misses: 13214
NL:misses_by_poll: 0

total selections: 24538295
total_filled: 8942401
total_useful: 3938625
total_late: 1848962
total_polluted: 16008
total_misses_after_warmup: 4091852
conflicts: 20539
Degree Incremented Times: 14673
Degree Decremented Times: 24

L1 IP Table Write Accesses: 16543742
L1 IP Table Read Accesses: 16523203
L1 RST Write Accesses: 10367406
L1 RST Read Accesses: 20734812
L1 CSPT Write Accesses: 10367406
L1 CSPT Read Accesses: 35458661
L1 RR Filter Tag Write Accesses: 24567465
L1 RR Filter Tag Read Accesses: 1787190142
L1 IP Table Tag Write Accesses: 16674933
L1 IP Table Tag Read Accesses: 16674933
L1 RST Tag Write Accesses: 0
L1 RST Tag Read Accesses: 93218268
L1 RR Filter Write Accesses: 0
L1 RR Filter Read Accesses: 76091257
test: 602391
L2 IP Table Read Accesses: 25142642
L2 IP Table Write Accesses: 23297733
L2 IP Table Tag Read Accesses: 12571413
L2 IP Table Tag Write Accesses: 12571413

DRAM Statistics
 CHANNEL 0
 RQ ROW_BUFFER_HIT:    9781371  ROW_BUFFER_MISS:    2389951
 DBUS_CONGESTED:       6002
 WQ ROW_BUFFER_HIT:      41808  ROW_BUFFER_MISS:     142237  FULL:          0

 AVG_CONGESTED_CYCLE: 5
 All warmup complete: 2
Channel 0 Bank busy for read cycles: 0
Channel 0 Bank busy for write cycles: 0
Channel 0
Rank 0
0banks busy for read cycles: 3762083
0banks busy for write cycles: 565
1banks busy for read cycles: 11857537
1banks busy for write cycles: 1057574
2banks busy for read cycles: 12412439
2banks busy for write cycles: 403563
3banks busy for read cycles: 12929815
3banks busy for write cycles: 287651
4banks busy for read cycles: 16422223
4banks busy for write cycles: 263087
5banks busy for read cycles: 25793890
5banks busy for write cycles: 307234
6banks busy for read cycles: 33755883
6banks busy for write cycles: 409581
7banks busy for read cycles: 29978155
7banks busy for write cycles: 1031596
8banks busy for read cycles: 20880893
8banks busy for write cycles: 7090159

CPU 0 Branch Prediction Accuracy: 97.7265% MPKI: 4.14186 Average ROB Occupancy at Mispredict: 48.2571
Branch types
NOT_BRANCH: 40890881 81.7818%
BRANCH_DIRECT_JUMP: 2054757 4.10951%
BRANCH_INDIRECT: 0 0%
BRANCH_CONDITIONAL: 7053561 14.1071%
BRANCH_DIRECT_CALL: 402 0.000804%
BRANCH_INDIRECT_CALL: 0 0%
BRANCH_RETURN: 402 0.000804%
BRANCH_OTHER: 0 0%

@sumon_overall_L1D   3938625   1783860   5003677   8942401  39437759  44261700
@Sumon_Early_by_class_L1D   3202568     41077    694980         0
@Sumon_Late_by_class_L1D   1321282      1646    419805         0

@Sumon_Early_by_cycle_L1D   1233666   1078401    889071    389821    139778    191092     13713      2648       385        46         4         0
@Sumon_Late_by_cycle_L1D    928392    736182    116050      2552       588        94         0         0         0         0         0         0
@Sumon_Early_stream_L1D   1044895    840370    713643    332258    113807    149600      6408      1369       177        37         4         0
@Sumon_Early_CS_L1D      3469      3044      4553      4347      4094     15306      5202       941       117         4         0         0
@Sumon_Early_CPLX_L1D    185302    234987    170875     53216     21877     26186      2103       338        91         5         0         0
@Sumon_Late_stream_L1D    695977    542173     80723      1917       413        79         0         0         0         0         0         0
@Sumon_Late_CS_L1D      1071       512        62         1         0         0         0         0         0         0         0         0
@Sumon_Late_CPLX_L1D    190219    193497     35265       634       175        15         0         0         0         0         0         0
@sumon_overall_L2C    137263         0  10201909  10338436       184       184
@Sumon_Early_by_class_L2C     95967     11759     29537         0
@Sumon_Late_by_class_L2C         0         0         0         0

@Sumon_Early_by_cycle_L2C     15218     45545     41620     14010      4774      8613      3878      1996      1003       484        93        29
@Sumon_Late_by_cycle_L2C         0         0         0         0         0         0         0         0         0         0         0         0
@Sumon_Early_stream_L2C     12235     34094     31037     10485      3032      3187       783       596       262       206        40        10
@Sumon_Early_CS_L2C        26       179       588       714       887      4591      2941      1263       494        75         1         0
@Sumon_Early_CPLX_L2C      2957     11272      9995      2811       855       835       154       137       247       203        52        19
@Sumon_Late_stream_L2C         0         0         0         0         0         0         0         0         0         0         0         0
@Sumon_Late_CS_L2C         0         0         0         0         0         0         0         0         0         0         0         0
@Sumon_Late_CPLX_L2C         0         0         0         0         0         0         0         0         0         0         0         0
DRAM PAGES: 1048576
Allocated PAGES: 6307
