
*** ChampSim Multicore Out-of-Order Simulator ***

Warmup Instructions: 10000000
Simulation Instructions: 50000000
Number of CPUs: 1
LLC sets: 2048
LLC ways: 16
Off-chip DRAM Size: 4096 MB Channels: 1 Width: 64-bit Data Rate: 6400 MT/s
CPU 0 runs traces/SPEC2017/607.cactuBSSN_s-2421B.champsimtrace.xz
.xz
CPU 0 Bimodal branch predictor
BTB has LRU replacement policy
ITLB has LRU replacement policy
DTLB has LRU replacement policy
STLB has LRU replacement policy
L1I has LRU replacement policy
IP Table Entries: 256
Initialize DRRIP state for L1D
IP_Table L2 entries: 256
L2C has LRU replacement policy
LLC has LRU replacement policy
Heartbeat CPU 0 instructions: 10000002 cycles: 3587233 heartbeat IPC: 2.78766 cumulative IPC: 2.78766 (Simulation time: 0 hr 30 min 5 sec) 

Warmup complete CPU 0 instructions: 10000002 cycles: 3587233 (Simulation time: 0 hr 30 min 5 sec) 

Heartbeat CPU 0 instructions: 20000001 cycles: 14653099 heartbeat IPC: 0.90368 cumulative IPC: 0.90368 (Simulation time: 0 hr 51 min 22 sec) 
Heartbeat CPU 0 instructions: 30000000 cycles: 25682304 heartbeat IPC: 0.906684 cumulative IPC: 0.905179 (Simulation time: 1 hr 12 min 43 sec) 
Heartbeat CPU 0 instructions: 40000001 cycles: 36701269 heartbeat IPC: 0.907526 cumulative IPC: 0.90596 (Simulation time: 1 hr 33 min 52 sec) 
Heartbeat CPU 0 instructions: 50000000 cycles: 47734187 heartbeat IPC: 0.906378 cumulative IPC: 0.906065 (Simulation time: 1 hr 52 min 49 sec) 
Heartbeat CPU 0 instructions: 60000003 cycles: 58882281 heartbeat IPC: 0.897015 cumulative IPC: 0.90424 (Simulation time: 2 hr 4 min 25 sec) 
Finished CPU 0 instructions: 50000001 cycles: 55295048 cumulative IPC: 0.90424 (Simulation time: 2 hr 4 min 25 sec) 

ChampSim completed all CPUs

Region of Interest Statistics

CPU 0 cumulative IPC: 0.90424 instructions: 50000001 cycles: 55295048
ITLB TOTAL     ACCESS:    6918616  HIT:    6918556  MISS:         60  HIT %:    99.9991  MISS %: 0.000867225   MPKI: 0.0012
ITLB LOAD TRANSLATION ACCESS:    6918616  HIT:    6918556  MISS:         60  HIT %:    99.9991  MISS %: 0.000867225   MPKI: 0.0012
ITLB PREFETCH  REQUESTED:          0  ISSUED:          0  USEFUL:          0  USELESS:          0
ITLB USEFUL LOAD PREFETCHES:          0 PREFETCH ISSUED TO LOWER LEVEL:          0  ACCURACY: -nan
ITLB TIMELY PREFETCHES:          0 LATE PREFETCHES: 0 DROPPED PREFETCHES: 0
ITLB PREFETCHES SAME FILL-ORIGIN LEVEL: 0 DIFFERENT FILL-ORIGIN LEVEL: 0
ITLB AVERAGE MISS LATENCY: 371.883 cycles
ITLB RQ	ACCESS:    8514676	FORWARD:          0	MERGED:    1596048	TO_CACHE:    6918628

DTLB TOTAL     ACCESS:   13442624  HIT:   11223458  MISS:    2219166  HIT %:    83.4916  MISS %:    16.5084   MPKI: 44.3833
DTLB LOAD TRANSLATION ACCESS:   13442624  HIT:   11223458  MISS:    2219166  HIT %:    83.4916  MISS %:    16.5084   MPKI: 44.3833
DTLB PREFETCH  REQUESTED:          0  ISSUED:          0  USEFUL:          0  USELESS:          0
DTLB USEFUL LOAD PREFETCHES:          0 PREFETCH ISSUED TO LOWER LEVEL:          0  ACCURACY: -nan
DTLB TIMELY PREFETCHES:          0 LATE PREFETCHES: 0 DROPPED PREFETCHES: 0
DTLB PREFETCHES SAME FILL-ORIGIN LEVEL: 0 DIFFERENT FILL-ORIGIN LEVEL: 0
DTLB AVERAGE MISS LATENCY: 10.1568 cycles
DTLB RQ	ACCESS:   18894848	FORWARD:          0	MERGED:    5243071	TO_CACHE:   13651777

STLB TOTAL     ACCESS:    2247629  HIT:    2244571  MISS:       3058  HIT %:    99.8639  MISS %:   0.136054   MPKI: 0.06116
STLB LOAD TRANSLATION ACCESS:    2219226  HIT:    2216168  MISS:       3058  HIT %:    99.8622  MISS %:   0.137796   MPKI: 0.06116
STLB TRANSLATION FROM L1D PREFETCHER ACCESS:      28403  HIT:      28403  MISS:          0  HIT %:        100  MISS %:          0   MPKI: 0
STLB PREFETCH  REQUESTED:          0  ISSUED:          0  USEFUL:          0  USELESS:          0
STLB USEFUL LOAD PREFETCHES:          0 PREFETCH ISSUED TO LOWER LEVEL:          0  ACCURACY: -nan
STLB TIMELY PREFETCHES:          0 LATE PREFETCHES: 0 DROPPED PREFETCHES: 0
STLB PREFETCHES SAME FILL-ORIGIN LEVEL: 0 DIFFERENT FILL-ORIGIN LEVEL: 0
STLB AVERAGE MISS LATENCY: 598.942 cycles
STLB RQ	ACCESS:    2248813	FORWARD:          0	MERGED:       1184	TO_CACHE:    2247629

STLB Hit, L1D data hit: 0
STLB Hit, L2C data hit: 0
STLB Hit, LLC data hit: 0
STLB Hit, LLC data miss: 0
STLB STLB hints to L2: 0
L1D TOTAL     ACCESS:   18833148  HIT:   15058688  MISS:    3774460  HIT %:    79.9584  MISS %:    20.0416   MPKI: 75.4892
L1D LOAD      ACCESS:   14515262  HIT:   11040771  MISS:    3474491  HIT %:    76.0632  MISS %:    23.9368   MPKI: 69.4898
L1D RFO       ACCESS:    4288314  HIT:    4014828  MISS:     273486  HIT %:    93.6225  MISS %:    6.37747   MPKI: 5.46972
L1D PREFETCH  ACCESS:      29572  HIT:       3089  MISS:      26483  HIT %:    10.4457  MISS %:    89.5543   MPKI: 0.52966
L1D PREFETCH  REQUESTED:      59174  ISSUED:      59174  USEFUL:       1627  USELESS:      24821
L1D USEFUL LOAD PREFETCHES:       1627 PREFETCH ISSUED TO LOWER LEVEL:      27633  ACCURACY: 5.88789
L1D TIMELY PREFETCHES:       1627 LATE PREFETCHES: 4 DROPPED PREFETCHES: 0
L1D PREFETCHES SAME FILL-ORIGIN LEVEL: 27633 DIFFERENT FILL-ORIGIN LEVEL: 0
L1D AVERAGE MISS LATENCY: 78.8755 cycles
L1D RQ	ACCESS:   18621551	FORWARD:          0	MERGED:    4014607	TO_CACHE:   14597993
L1D WQ	ACCESS:    4319709	FORWARD:       8951	MERGED:      22854	TO_CACHE:    4296855
L1D PQ	ACCESS:      29587	FORWARD:          0	MERGED:          0	TO_CACHE:      29587

L1D UNIQUE REGIONS ACCESSED: 0
L1D REGIONS CONFLICTS: 0
L1D Cross Page Prefetch Requests: 0
L1D Same Page Prefetch Requests: 30914
L1D ROI Sum of L1D PQ occupancy: 414183
L1D PREFETCHES PUSHED FROM L2C: 0
L1I TOTAL     ACCESS:    7958588  HIT:    6868831  MISS:    1089757  HIT %:    86.3072  MISS %:    13.6928   MPKI: 21.7951
L1I LOAD      ACCESS:    7958588  HIT:    6868831  MISS:    1089757  HIT %:    86.3072  MISS %:    13.6928   MPKI: 21.7951
L1I PREFETCH  REQUESTED:          0  ISSUED:          0  USEFUL:          0  USELESS:          0
L1I USEFUL LOAD PREFETCHES:          0 PREFETCH ISSUED TO LOWER LEVEL:          0  ACCURACY: -nan
L1I TIMELY PREFETCHES:          0 LATE PREFETCHES: 0 DROPPED PREFETCHES: 0
L1I PREFETCHES SAME FILL-ORIGIN LEVEL: 0 DIFFERENT FILL-ORIGIN LEVEL: 0
L1I AVERAGE MISS LATENCY: 14.2593 cycles
L1I RQ	ACCESS:   12017246	FORWARD:          0	MERGED:    3502570	TO_CACHE:    8514676

BTB TOTAL     ACCESS:     280550  HIT:     262606  MISS:      17944  HIT %:     93.604  MISS %:    6.39601   MPKI: 0.35888
BTB BRANCH_DIRECT_JUMP	ACCESS:      48856  HIT:      48796  MISS:         60
BTB BRANCH_INDIRECT	ACCESS:      10100  HIT:      10021  MISS:         79
BTB BRANCH_CONDITIONAL	ACCESS:     122188  HIT:     121715  MISS:        473
BTB BRANCH_DIRECT_CALL	ACCESS:      49700  HIT:      49036  MISS:        664
BTB BRANCH_INDIRECT_CALL	ACCESS:          3  HIT:          0  MISS:          3
BTB BRANCH_RETURN	ACCESS:      49703  HIT:      33038  MISS:      16665
BTB BRANCH_OTHER ACCESS:          0  HIT:          0  MISS:          0

L2C TOTAL     ACCESS:    7378328  HIT:    7048201  MISS:     330127  HIT %:    95.5257  MISS %:    4.47428   MPKI: 6.60254
L2C LOAD      ACCESS:    4550132  HIT:    4465748  MISS:      84384  HIT %:    98.1455  MISS %:    1.85454   MPKI: 1.68768
L2C DATA LOAD MPKI: 1.65734
L2C INSTRUCTION LOAD MPKI: 0.03034
L2C RFO       ACCESS:     273219  HIT:     246791  MISS:      26428  HIT %:    90.3272  MISS %:    9.67283   MPKI: 0.52856
L2C PREFETCH  ACCESS:    2271043  HIT:    2056201  MISS:     214842  HIT %:    90.5399  MISS %:    9.46006   MPKI: 4.29684
L2C DATA PREFETCH MPKI: 4.29684
L2C INSTRUCTION PREFETCH MPKI: 0
L2C WRITEBACK ACCESS:     279463  HIT:     278937  MISS:        526  HIT %:    99.8118  MISS %:   0.188218   MPKI: 0.01052
L2C LOAD TRANSLATION ACCESS:       4471  HIT:        524  MISS:       3947  HIT %:      11.72  MISS %:      88.28   MPKI: 0.07894
L2C PREFETCH  REQUESTED:    2270689  ISSUED:    2251737  USEFUL:     209271  USELESS:       5449
L2C USEFUL LOAD PREFETCHES:     209271 PREFETCH ISSUED TO LOWER LEVEL:     214901  ACCURACY: 97.3802
L2C TIMELY PREFETCHES:     209271 LATE PREFETCHES: 59 DROPPED PREFETCHES: 0
L2C PREFETCHES SAME FILL-ORIGIN LEVEL: 196883 DIFFERENT FILL-ORIGIN LEVEL: 0
L2C AVERAGE MISS LATENCY: 187.719 cycles
L2C RQ	ACCESS:    4842201	FORWARD:          0	MERGED:          0	TO_CACHE:    4827822
L2C WQ	ACCESS:     279504	FORWARD:      14384	MERGED:         41	TO_CACHE:     279463
L2C PQ	ACCESS:    2278224	FORWARD:          0	MERGED:       4956	TO_CACHE:    2273263

L2C Instructions Evicting Data 1491
L2C Translations Evicting Data 3871
L2C Data Evicting Data 318679
L2C Instructions Evicting Instructions 17
L2C Translations Evicting Instructions 13
L2C Data Evicting Instructions 1634
L2C Instructions Evicting Translations 9
L2C Translations Evicting Translations 63
L2C Data Evicting Translations 3824
L2C Dense regions hint from L2: 0
PSCL5 TOTAL     ACCESS:       3058  HIT:       3058  MISS:          0  HIT %:        100  MISS %:          0   MPKI: 0
PSCL5 LOAD TRANSLATION ACCESS:       3058  HIT:       3058  MISS:          0  HIT %:        100  MISS %:          0   MPKI: 0
PSCL5 PREFETCH  REQUESTED:          0  ISSUED:          0  USEFUL:          0  USELESS:          0
PSCL5 USEFUL LOAD PREFETCHES:          0 PREFETCH ISSUED TO LOWER LEVEL:          0  ACCURACY: -nan
PSCL5 TIMELY PREFETCHES:          0 LATE PREFETCHES: 0 DROPPED PREFETCHES: 0
PSCL5 PREFETCHES SAME FILL-ORIGIN LEVEL: 0 DIFFERENT FILL-ORIGIN LEVEL: 0

PSCL4 TOTAL     ACCESS:       3058  HIT:       3058  MISS:          0  HIT %:        100  MISS %:          0   MPKI: 0
PSCL4 LOAD TRANSLATION ACCESS:       3058  HIT:       3058  MISS:          0  HIT %:        100  MISS %:          0   MPKI: 0
PSCL4 PREFETCH  REQUESTED:          0  ISSUED:          0  USEFUL:          0  USELESS:          0
PSCL4 USEFUL LOAD PREFETCHES:          0 PREFETCH ISSUED TO LOWER LEVEL:          0  ACCURACY: -nan
PSCL4 TIMELY PREFETCHES:          0 LATE PREFETCHES: 0 DROPPED PREFETCHES: 0
PSCL4 PREFETCHES SAME FILL-ORIGIN LEVEL: 0 DIFFERENT FILL-ORIGIN LEVEL: 0

PSCL3 TOTAL     ACCESS:       3058  HIT:       3053  MISS:          5  HIT %:    99.8365  MISS %:   0.163506   MPKI: 0.0001
PSCL3 LOAD TRANSLATION ACCESS:       3058  HIT:       3053  MISS:          5  HIT %:    99.8365  MISS %:   0.163506   MPKI: 0.0001
PSCL3 PREFETCH  REQUESTED:          0  ISSUED:          0  USEFUL:          0  USELESS:          0
PSCL3 USEFUL LOAD PREFETCHES:          0 PREFETCH ISSUED TO LOWER LEVEL:          0  ACCURACY: -nan
PSCL3 TIMELY PREFETCHES:          0 LATE PREFETCHES: 0 DROPPED PREFETCHES: 0
PSCL3 PREFETCHES SAME FILL-ORIGIN LEVEL: 0 DIFFERENT FILL-ORIGIN LEVEL: 0

PSCL2 TOTAL     ACCESS:       3058  HIT:       1588  MISS:       1470  HIT %:    51.9294  MISS %:    48.0706   MPKI: 0.0294
PSCL2 LOAD TRANSLATION ACCESS:       3058  HIT:       1588  MISS:       1470  HIT %:    51.9294  MISS %:    48.0706   MPKI: 0.0294
PSCL2 PREFETCH  REQUESTED:          0  ISSUED:          0  USEFUL:          0  USELESS:          0
PSCL2 USEFUL LOAD PREFETCHES:          0 PREFETCH ISSUED TO LOWER LEVEL:          0  ACCURACY: -nan
PSCL2 TIMELY PREFETCHES:          0 LATE PREFETCHES: 0 DROPPED PREFETCHES: 0
PSCL2 PREFETCHES SAME FILL-ORIGIN LEVEL: 0 DIFFERENT FILL-ORIGIN LEVEL: 0

LLC TOTAL     ACCESS:     364015  HIT:     187230  MISS:     176785  HIT %:    51.4347  MISS %:    48.5653   MPKI: 3.5357
LLC LOAD      ACCESS:      84324  HIT:      45117  MISS:      39207  HIT %:    53.5043  MISS %:    46.4957   MPKI: 0.78414
LLC RFO       ACCESS:      26338  HIT:       1675  MISS:      24663  HIT %:    6.35963  MISS %:    93.6404   MPKI: 0.49326
LLC PREFETCH  ACCESS:     214901  HIT:     102767  MISS:     112134  HIT %:    47.8206  MISS %:    52.1794   MPKI: 2.24268
LLC WRITEBACK ACCESS:      34505  HIT:      34358  MISS:        147  HIT %:     99.574  MISS %:   0.426025   MPKI: 0.00294
LLC LOAD TRANSLATION ACCESS:       3947  HIT:       3313  MISS:        634  HIT %:    83.9372  MISS %:    16.0628   MPKI: 0.01268
LLC PREFETCH  REQUESTED:          0  ISSUED:          0  USEFUL:      17432  USELESS:      85222
LLC USEFUL LOAD PREFETCHES:      17432 PREFETCH ISSUED TO LOWER LEVEL:     112134  ACCURACY: 15.5457
LLC TIMELY PREFETCHES:      17432 LATE PREFETCHES: 0 DROPPED PREFETCHES: 0
LLC PREFETCHES SAME FILL-ORIGIN LEVEL: 0 DIFFERENT FILL-ORIGIN LEVEL: 0
LLC AVERAGE MISS LATENCY: 292.665 cycles
LLC RQ	ACCESS:     114700	FORWARD:          0	MERGED:          0	TO_CACHE:     114609
LLC WQ	ACCESS:      34505	FORWARD:         91	MERGED:          0	TO_CACHE:      34505
LLC PQ	ACCESS:     214901	FORWARD:          0	MERGED:          0	TO_CACHE:     214901

LLC Dense regions hint to LLC: 0

RAW hits: 105566
Loads Generated: 18727117
Loads sent to L1D: 18621551
Stores Generated: 4319811
Stores sent to L1D: 4319809
Major fault: 0 Minor fault: 3837
Allocated PAGES: 3837

stream: 
stream:times selected: 37002
stream:pref_filled: 21793
stream:pref_useful: 1394
stream:pref_late: 1
stream:misses: 487
stream:misses_by_poll: 0

CS: 
CS:times selected: 19273
CS:pref_filled: 310
CS:pref_useful: 22
CS:pref_late: 3
CS:misses: 1822
CS:misses_by_poll: 0

CPLX: 
CPLX:times selected: 35169
CPLX:pref_filled: 536
CPLX:pref_useful: 74
CPLX:pref_late: 0
CPLX:misses: 136355
CPLX:misses_by_poll: 0

NL_L1: 
NL:times selected: 5
NL:pref_filled: 5
NL:pref_useful: 0
NL:pref_late: 0
NL:misses: 24
NL:misses_by_poll: 0

total selections: 91449
total_filled: 26483
total_useful: 1627
total_late: 4
total_polluted: 0
total_misses_after_warmup: 3557230
conflicts: 6973960
Degree Incremented Times: 0
Degree Decremented Times: 6682907

L1 IP Table Write Accesses: 7374367
L1 IP Table Read Accesses: 400407
L1 RST Write Accesses: 34874
L1 RST Read Accesses: 69748
L1 CSPT Write Accesses: 34874
L1 CSPT Read Accesses: 69537
L1 RR Filter Tag Write Accesses: 29587
L1 RR Filter Tag Read Accesses: 2545802
L1 IP Table Tag Write Accesses: 14598001
L1 IP Table Tag Read Accesses: 14598001
L1 RST Tag Write Accesses: 0
L1 RST Tag Read Accesses: 295975
L1 RR Filter Write Accesses: 0
L1 RR Filter Read Accesses: 84737
test: 2322
L2 IP Table Read Accesses: 4660138
L2 IP Table Write Accesses: 5425326
L2 IP Table Tag Read Accesses: 3481848
L2 IP Table Tag Write Accesses: 3481848

DRAM Statistics
 CHANNEL 0
 RQ ROW_BUFFER_HIT:      96079  ROW_BUFFER_MISS:      80559
 DBUS_CONGESTED:        162
 WQ ROW_BUFFER_HIT:      12907  ROW_BUFFER_MISS:      21665  FULL:          0

 AVG_CONGESTED_CYCLE: 4
 All warmup complete: 2
Channel 0 Bank busy for read cycles: 0
Channel 0 Bank busy for write cycles: 0
Channel 0
Rank 0
0banks busy for read cycles: 44047502
0banks busy for write cycles: 10006
1banks busy for read cycles: 4732308
1banks busy for write cycles: 1349754
2banks busy for read cycles: 1562180
2banks busy for write cycles: 444156
3banks busy for read cycles: 1030584
3banks busy for write cycles: 293661
4banks busy for read cycles: 637999
4banks busy for write cycles: 233420
5banks busy for read cycles: 345037
5banks busy for write cycles: 154774
6banks busy for read cycles: 164021
6banks busy for write cycles: 103172
7banks busy for read cycles: 93474
7banks busy for write cycles: 71319
8banks busy for read cycles: 3316
8banks busy for write cycles: 18366

CPU 0 Branch Prediction Accuracy: 99.2795% MPKI: 0.0593 Average ROB Occupancy at Mispredict: 16.5524
Branch types
NOT_BRANCH: 49588170 99.1763%
BRANCH_DIRECT_JUMP: 48856 0.097712%
BRANCH_INDIRECT: 10100 0.0202%
BRANCH_CONDITIONAL: 253148 0.506296%
BRANCH_DIRECT_CALL: 49700 0.0994%
BRANCH_INDIRECT_CALL: 3 6e-06%
BRANCH_RETURN: 49703 0.099406%
BRANCH_OTHER: 0 0%

@sumon_overall_L1D      1627         4     24821     26483     59174     59174
@Sumon_Early_by_class_L1D      1297        20        34         0
@Sumon_Late_by_class_L1D         1         3         0         0

@Sumon_Early_by_cycle_L1D        13        18        17        14         5        24         7        23       114      1359        21        12
@Sumon_Late_by_cycle_L1D         2         2         0         0         0         0         0         0         0         0         0         0
@Sumon_Early_stream_L1D         6        13        13         8         3        15         4        20        88      1111        11         5
@Sumon_Early_CS_L1D         1         3         3         4         1         4         0         0         1         1         0         2
@Sumon_Early_CPLX_L1D         3         0         1         2         1         4         1         1         2         5         9         5
@Sumon_Late_stream_L1D         1         0         0         0         0         0         0         0         0         0         0         0
@Sumon_Late_CS_L1D         1         2         0         0         0         0         0         0         0         0         0         0
@Sumon_Late_CPLX_L1D         0         0         0         0         0         0         0         0         0         0         0         0
@sumon_overall_L2C    209271        59      5449    214842   2251737   2270689
@Sumon_Early_by_class_L2C     13568        21        13         0
@Sumon_Late_by_class_L2C         0         0         0         0

@Sumon_Early_by_cycle_L2C        31         3         2         2         3         5       348       978      9574    192361      5717       247
@Sumon_Late_by_cycle_L2C        57         2         0         0         0         0         0         0         0         0         0         0
@Sumon_Early_stream_L2C         0         0         0         0         0         0         3         8       604     12908        35        10
@Sumon_Early_CS_L2C         0         0         0         0         0         0         0         0         0        21         0         0
@Sumon_Early_CPLX_L2C         0         0         0         0         0         0         0         0         0         3         1         9
@Sumon_Late_stream_L2C         0         0         0         0         0         0         0         0         0         0         0         0
@Sumon_Late_CS_L2C         0         0         0         0         0         0         0         0         0         0         0         0
@Sumon_Late_CPLX_L2C         0         0         0         0         0         0         0         0         0         0         0         0
DRAM PAGES: 1048576
Allocated PAGES: 3837
