
*** ChampSim Multicore Out-of-Order Simulator ***

Warmup Instructions: 10000000
Simulation Instructions: 50000000
Number of CPUs: 1
LLC sets: 2048
LLC ways: 16
Off-chip DRAM Size: 4096 MB Channels: 1 Width: 64-bit Data Rate: 6400 MT/s
CPU 0 runs traces/SPEC2017/649.fotonik3d_s-7084B.champsimtrace.xz
.xz
CPU 0 Bimodal branch predictor
BTB has LRU replacement policy
ITLB has LRU replacement policy
DTLB has LRU replacement policy
STLB has LRU replacement policy
L1I has LRU replacement policy
IP Table Entries: 256
Initialize DRRIP state for L1D
IP_Table L2 entries: 256
L2C has LRU replacement policy
LLC has LRU replacement policy
Heartbeat CPU 0 instructions: 10000001 cycles: 2909589 heartbeat IPC: 3.43691 cumulative IPC: 3.43691 (Simulation time: 0 hr 24 min 10 sec) 

Warmup complete CPU 0 instructions: 10000001 cycles: 2909589 (Simulation time: 0 hr 24 min 10 sec) 

Heartbeat CPU 0 instructions: 20000002 cycles: 13236206 heartbeat IPC: 0.968371 cumulative IPC: 0.968371 (Simulation time: 0 hr 43 min 13 sec) 
Heartbeat CPU 0 instructions: 30000002 cycles: 23576098 heartbeat IPC: 0.967128 cumulative IPC: 0.967749 (Simulation time: 1 hr 2 min 21 sec) 
Heartbeat CPU 0 instructions: 40000003 cycles: 33925960 heartbeat IPC: 0.966197 cumulative IPC: 0.967231 (Simulation time: 1 hr 21 min 12 sec) 
Heartbeat CPU 0 instructions: 50000002 cycles: 44269578 heartbeat IPC: 0.96678 cumulative IPC: 0.967118 (Simulation time: 1 hr 40 min 19 sec) 
Heartbeat CPU 0 instructions: 60000002 cycles: 54631162 heartbeat IPC: 0.965103 cumulative IPC: 0.966715 (Simulation time: 1 hr 56 min 23 sec) 
Finished CPU 0 instructions: 50000001 cycles: 51721573 cumulative IPC: 0.966715 (Simulation time: 1 hr 56 min 23 sec) 

ChampSim completed all CPUs

Region of Interest Statistics

CPU 0 cumulative IPC: 0.966715 instructions: 50000001 cycles: 51721573
ITLB TOTAL     ACCESS:    6088112  HIT:    6088112  MISS:          0  HIT %:        100  MISS %:          0   MPKI: 0
ITLB LOAD TRANSLATION ACCESS:    6088112  HIT:    6088112  MISS:          0  HIT %:        100  MISS %:          0   MPKI: 0
ITLB PREFETCH  REQUESTED:          0  ISSUED:          0  USEFUL:          0  USELESS:          0
ITLB USEFUL LOAD PREFETCHES:          0 PREFETCH ISSUED TO LOWER LEVEL:          0  ACCURACY: -nan
ITLB TIMELY PREFETCHES:          0 LATE PREFETCHES: 0 DROPPED PREFETCHES: 0
ITLB PREFETCHES SAME FILL-ORIGIN LEVEL: 0 DIFFERENT FILL-ORIGIN LEVEL: 0
ITLB AVERAGE MISS LATENCY: -nan cycles
ITLB RQ	ACCESS:    7429456	FORWARD:          0	MERGED:    1341343	TO_CACHE:    6088113

DTLB TOTAL     ACCESS:   13254612  HIT:   13185980  MISS:      68632  HIT %:    99.4822  MISS %:   0.517797   MPKI: 1.37264
DTLB LOAD TRANSLATION ACCESS:   13254612  HIT:   13185980  MISS:      68632  HIT %:    99.4822  MISS %:   0.517797   MPKI: 1.37264
DTLB PREFETCH  REQUESTED:          0  ISSUED:          0  USEFUL:          0  USELESS:          0
DTLB USEFUL LOAD PREFETCHES:          0 PREFETCH ISSUED TO LOWER LEVEL:          0  ACCURACY: -nan
DTLB TIMELY PREFETCHES:          0 LATE PREFETCHES: 0 DROPPED PREFETCHES: 0
DTLB PREFETCHES SAME FILL-ORIGIN LEVEL: 0 DIFFERENT FILL-ORIGIN LEVEL: 0
DTLB AVERAGE MISS LATENCY: 36.0955 cycles
DTLB RQ	ACCESS:   14550856	FORWARD:          0	MERGED:    1294880	TO_CACHE:   13255976

STLB TOTAL     ACCESS:    1254022  HIT:    1240376  MISS:      13646  HIT %:    98.9118  MISS %:    1.08818   MPKI: 0.27292
STLB LOAD TRANSLATION ACCESS:      68632  HIT:      54986  MISS:      13646  HIT %:    80.1171  MISS %:    19.8829   MPKI: 0.27292
STLB TRANSLATION FROM L1D PREFETCHER ACCESS:    1185390  HIT:    1185390  MISS:          0  HIT %:        100  MISS %:          0   MPKI: 0
STLB PREFETCH  REQUESTED:          0  ISSUED:          0  USEFUL:          0  USELESS:          0
STLB USEFUL LOAD PREFETCHES:          0 PREFETCH ISSUED TO LOWER LEVEL:          0  ACCURACY: -nan
STLB TIMELY PREFETCHES:          0 LATE PREFETCHES: 0 DROPPED PREFETCHES: 0
STLB PREFETCHES SAME FILL-ORIGIN LEVEL: 0 DIFFERENT FILL-ORIGIN LEVEL: 0
STLB AVERAGE MISS LATENCY: 135.192 cycles
STLB RQ	ACCESS:    2380206	FORWARD:          0	MERGED:    1126184	TO_CACHE:    1254022

STLB Hit, L1D data hit: 0
STLB Hit, L2C data hit: 0
STLB Hit, LLC data hit: 0
STLB Hit, LLC data miss: 0
STLB STLB hints to L2: 0
L1D TOTAL     ACCESS:   16841349  HIT:   15515392  MISS:    1325957  HIT %:    92.1268  MISS %:    7.87322   MPKI: 26.5191
L1D LOAD      ACCESS:   12085185  HIT:   11874402  MISS:     210783  HIT %:    98.2559  MISS %:    1.74414   MPKI: 4.21566
L1D RFO       ACCESS:    2458541  HIT:    2453897  MISS:       4644  HIT %:    99.8111  MISS %:   0.188893   MPKI: 0.09288
L1D PREFETCH  ACCESS:    2297623  HIT:    1187093  MISS:    1110530  HIT %:    51.6661  MISS %:    48.3339   MPKI: 22.2106
L1D PREFETCH  REQUESTED:    4628534  ISSUED:    4623148  USEFUL:     648855  USELESS:     461699
L1D USEFUL LOAD PREFETCHES:     648855 PREFETCH ISSUED TO LOWER LEVEL:    1113800  ACCURACY: 58.256
L1D TIMELY PREFETCHES:     648855 LATE PREFETCHES: 3263 DROPPED PREFETCHES: 0
L1D PREFETCHES SAME FILL-ORIGIN LEVEL: 1113800 DIFFERENT FILL-ORIGIN LEVEL: 0
L1D AVERAGE MISS LATENCY: 72181.3 cycles
L1D RQ	ACCESS:   17572274	FORWARD:          0	MERGED:    5466033	TO_CACHE:   12092264
L1D WQ	ACCESS:    2458592	FORWARD:      13977	MERGED:          0	TO_CACHE:    2458592
L1D PQ	ACCESS:    2311574	FORWARD:          0	MERGED:          0	TO_CACHE:    2311574

L1D UNIQUE REGIONS ACCESSED: 0
L1D REGIONS CONFLICTS: 0
L1D Cross Page Prefetch Requests: 0
L1D Same Page Prefetch Requests: 2784720
L1D ROI Sum of L1D PQ occupancy: 36332861
L1D PREFETCHES PUSHED FROM L2C: 0
L1I TOTAL     ACCESS:    7429455  HIT:    7429455  MISS:          0  HIT %:        100  MISS %:          0   MPKI: 0
L1I LOAD      ACCESS:    7429455  HIT:    7429455  MISS:          0  HIT %:        100  MISS %:          0   MPKI: 0
L1I PREFETCH  REQUESTED:          0  ISSUED:          0  USEFUL:          0  USELESS:          0
L1I USEFUL LOAD PREFETCHES:          0 PREFETCH ISSUED TO LOWER LEVEL:          0  ACCURACY: -nan
L1I TIMELY PREFETCHES:          0 LATE PREFETCHES: 0 DROPPED PREFETCHES: 0
L1I PREFETCHES SAME FILL-ORIGIN LEVEL: 0 DIFFERENT FILL-ORIGIN LEVEL: 0
L1I AVERAGE MISS LATENCY: -nan cycles
L1I RQ	ACCESS:   10832989	FORWARD:          0	MERGED:    3403533	TO_CACHE:    7429456

BTB TOTAL     ACCESS:     336775  HIT:     336772  MISS:          3  HIT %:    99.9991  MISS %: 0.000890802   MPKI: 6e-05
BTB BRANCH_DIRECT_JUMP	ACCESS:          0  HIT:          0  MISS:          0
BTB BRANCH_INDIRECT	ACCESS:          0  HIT:          0  MISS:          0
BTB BRANCH_CONDITIONAL	ACCESS:     336775  HIT:     336772  MISS:          3
BTB BRANCH_DIRECT_CALL	ACCESS:          0  HIT:          0  MISS:          0
BTB BRANCH_INDIRECT_CALL	ACCESS:          0  HIT:          0  MISS:          0
BTB BRANCH_RETURN	ACCESS:          0  HIT:          0  MISS:          0
BTB BRANCH_OTHER ACCESS:          0  HIT:          0  MISS:          0

L2C TOTAL     ACCESS:    1600706  HIT:     728729  MISS:     871977  HIT %:    45.5255  MISS %:    54.4745   MPKI: 17.4395
L2C LOAD      ACCESS:     207284  HIT:     177062  MISS:      30222  HIT %:      85.42  MISS %:      14.58   MPKI: 0.60444
L2C DATA LOAD MPKI: 0.60444
L2C INSTRUCTION LOAD MPKI: 0
L2C RFO       ACCESS:       4637  HIT:       4637  MISS:          0  HIT %:        100  MISS %:          0   MPKI: 0
L2C PREFETCH  ACCESS:    1113994  HIT:     273995  MISS:     839999  HIT %:    24.5957  MISS %:    75.4043   MPKI: 16.8
L2C DATA PREFETCH MPKI: 16.8
L2C INSTRUCTION PREFETCH MPKI: 0
L2C WRITEBACK ACCESS:     261145  HIT:     261135  MISS:         10  HIT %:    99.9962  MISS %: 0.00382929   MPKI: 0.0002
L2C LOAD TRANSLATION ACCESS:      13646  HIT:      11900  MISS:       1746  HIT %:     87.205  MISS %:     12.795   MPKI: 0.03492
L2C PREFETCH  REQUESTED:        202  ISSUED:        202  USEFUL:     138109  USELESS:     702416
L2C USEFUL LOAD PREFETCHES:     138109 PREFETCH ISSUED TO LOWER LEVEL:     840006  ACCURACY: 16.4414
L2C TIMELY PREFETCHES:     138109 LATE PREFETCHES: 0 DROPPED PREFETCHES: 0
L2C PREFETCHES SAME FILL-ORIGIN LEVEL: 29 DIFFERENT FILL-ORIGIN LEVEL: 0
L2C AVERAGE MISS LATENCY: 219.081 cycles
L2C RQ	ACCESS:     225810	FORWARD:          0	MERGED:          0	TO_CACHE:     225567
L2C WQ	ACCESS:     261145	FORWARD:        243	MERGED:          0	TO_CACHE:     261145
L2C PQ	ACCESS:    1114002	FORWARD:          0	MERGED:          0	TO_CACHE:    1114002

L2C Instructions Evicting Data 0
L2C Translations Evicting Data 1746
L2C Data Evicting Data 868472
L2C Instructions Evicting Instructions 0
L2C Translations Evicting Instructions 0
L2C Data Evicting Instructions 0
L2C Instructions Evicting Translations 0
L2C Translations Evicting Translations 0
L2C Data Evicting Translations 1749
L2C Dense regions hint from L2: 0
PSCL5 TOTAL     ACCESS:      13646  HIT:      13646  MISS:          0  HIT %:        100  MISS %:          0   MPKI: 0
PSCL5 LOAD TRANSLATION ACCESS:      13646  HIT:      13646  MISS:          0  HIT %:        100  MISS %:          0   MPKI: 0
PSCL5 PREFETCH  REQUESTED:          0  ISSUED:          0  USEFUL:          0  USELESS:          0
PSCL5 USEFUL LOAD PREFETCHES:          0 PREFETCH ISSUED TO LOWER LEVEL:          0  ACCURACY: -nan
PSCL5 TIMELY PREFETCHES:          0 LATE PREFETCHES: 0 DROPPED PREFETCHES: 0
PSCL5 PREFETCHES SAME FILL-ORIGIN LEVEL: 0 DIFFERENT FILL-ORIGIN LEVEL: 0

PSCL4 TOTAL     ACCESS:      13646  HIT:      13646  MISS:          0  HIT %:        100  MISS %:          0   MPKI: 0
PSCL4 LOAD TRANSLATION ACCESS:      13646  HIT:      13646  MISS:          0  HIT %:        100  MISS %:          0   MPKI: 0
PSCL4 PREFETCH  REQUESTED:          0  ISSUED:          0  USEFUL:          0  USELESS:          0
PSCL4 USEFUL LOAD PREFETCHES:          0 PREFETCH ISSUED TO LOWER LEVEL:          0  ACCURACY: -nan
PSCL4 TIMELY PREFETCHES:          0 LATE PREFETCHES: 0 DROPPED PREFETCHES: 0
PSCL4 PREFETCHES SAME FILL-ORIGIN LEVEL: 0 DIFFERENT FILL-ORIGIN LEVEL: 0

PSCL3 TOTAL     ACCESS:      13646  HIT:      13646  MISS:          0  HIT %:        100  MISS %:          0   MPKI: 0
PSCL3 LOAD TRANSLATION ACCESS:      13646  HIT:      13646  MISS:          0  HIT %:        100  MISS %:          0   MPKI: 0
PSCL3 PREFETCH  REQUESTED:          0  ISSUED:          0  USEFUL:          0  USELESS:          0
PSCL3 USEFUL LOAD PREFETCHES:          0 PREFETCH ISSUED TO LOWER LEVEL:          0  ACCURACY: -nan
PSCL3 TIMELY PREFETCHES:          0 LATE PREFETCHES: 0 DROPPED PREFETCHES: 0
PSCL3 PREFETCHES SAME FILL-ORIGIN LEVEL: 0 DIFFERENT FILL-ORIGIN LEVEL: 0

PSCL2 TOTAL     ACCESS:      13646  HIT:      13625  MISS:         21  HIT %:    99.8461  MISS %:   0.153891   MPKI: 0.00042
PSCL2 LOAD TRANSLATION ACCESS:      13646  HIT:      13625  MISS:         21  HIT %:    99.8461  MISS %:   0.153891   MPKI: 0.00042
PSCL2 PREFETCH  REQUESTED:          0  ISSUED:          0  USEFUL:          0  USELESS:          0
PSCL2 USEFUL LOAD PREFETCHES:          0 PREFETCH ISSUED TO LOWER LEVEL:          0  ACCURACY: -nan
PSCL2 TIMELY PREFETCHES:          0 LATE PREFETCHES: 0 DROPPED PREFETCHES: 0
PSCL2 PREFETCHES SAME FILL-ORIGIN LEVEL: 0 DIFFERENT FILL-ORIGIN LEVEL: 0

LLC TOTAL     ACCESS:    1131654  HIT:     259751  MISS:     871903  HIT %:    22.9532  MISS %:    77.0468   MPKI: 17.4381
LLC LOAD      ACCESS:      30222  HIT:         11  MISS:      30211  HIT %:  0.0363973  MISS %:    99.9636   MPKI: 0.60422
LLC PREFETCH  ACCESS:     839999  HIT:         59  MISS:     839940  HIT %: 0.00702382  MISS %:     99.993   MPKI: 16.7988
LLC WRITEBACK ACCESS:     259687  HIT:     259681  MISS:          6  HIT %:    99.9977  MISS %: 0.00231047   MPKI: 0.00012
LLC LOAD TRANSLATION ACCESS:       1746  HIT:          0  MISS:       1746  HIT %:          0  MISS %:        100   MPKI: 0.03492
LLC PREFETCH  REQUESTED:          0  ISSUED:          0  USEFUL:          1  USELESS:     839997
LLC USEFUL LOAD PREFETCHES:          1 PREFETCH ISSUED TO LOWER LEVEL:     839947  ACCURACY: 0.000119055
LLC TIMELY PREFETCHES:          1 LATE PREFETCHES: 0 DROPPED PREFETCHES: 0
LLC PREFETCHES SAME FILL-ORIGIN LEVEL: 0 DIFFERENT FILL-ORIGIN LEVEL: 0
LLC AVERAGE MISS LATENCY: 188.191 cycles
LLC RQ	ACCESS:      31968	FORWARD:          0	MERGED:          0	TO_CACHE:      31968
LLC WQ	ACCESS:     259687	FORWARD:          0	MERGED:          0	TO_CACHE:     259687
LLC PQ	ACCESS:     840006	FORWARD:          0	MERGED:          0	TO_CACHE:     840006

LLC Dense regions hint to LLC: 0

RAW hits: 114132
Loads Generated: 17686394
Loads sent to L1D: 17572274
Stores Generated: 2458593
Stores sent to L1D: 2458592
Major fault: 0 Minor fault: 13917
Allocated PAGES: 13917

stream: 
stream:times selected: 2073561
stream:pref_filled: 219355
stream:pref_useful: 84830
stream:pref_late: 2792
stream:misses: 216
stream:misses_by_poll: 0

CS: 
CS:times selected: 1803594
CS:pref_filled: 1109661
CS:pref_useful: 695507
CS:pref_late: 348
CS:misses: 260151
CS:misses_by_poll: 10647

CPLX: 
CPLX:times selected: 269855
CPLX:pref_filled: 3644
CPLX:pref_useful: 1142
CPLX:pref_late: 3
CPLX:misses: 1324
CPLX:misses_by_poll: 2

NL_L1: 
NL:times selected: 31
NL:pref_filled: 6
NL:pref_useful: 3
NL:pref_late: 0
NL:misses: 8
NL:misses_by_poll: 0

total selections: 4147041
total_filled: 1110530
total_useful: 648855
total_late: 3263
total_polluted: 10649
total_misses_after_warmup: 217865
conflicts: 13294
Degree Incremented Times: 0
Degree Decremented Times: 103844

L1 IP Table Write Accesses: 11692081
L1 IP Table Read Accesses: 11678787
L1 RST Write Accesses: 1726706
L1 RST Read Accesses: 3453412
L1 CSPT Write Accesses: 1726706
L1 CSPT Read Accesses: 1956466
L1 RR Filter Tag Write Accesses: 2316960
L1 RR Filter Tag Read Accesses: 156084087
L1 IP Table Tag Write Accesses: 12092267
L1 IP Table Tag Read Accesses: 12092267
L1 RST Tag Write Accesses: 0
L1 RST Tag Read Accesses: 15948829
L1 RR Filter Write Accesses: 0
L1 RR Filter Read Accesses: 6261674
test: 46978
L2 IP Table Read Accesses: 2641548
L2 IP Table Write Accesses: 2434472
L2 IP Table Tag Read Accesses: 1320875
L2 IP Table Tag Write Accesses: 1320875

DRAM Statistics
 CHANNEL 0
 RQ ROW_BUFFER_HIT:     269829  ROW_BUFFER_MISS:     602069
 DBUS_CONGESTED:        478
 WQ ROW_BUFFER_HIT:     126206  ROW_BUFFER_MISS:     133982  FULL:          0

 AVG_CONGESTED_CYCLE: 4
 All warmup complete: 2
Channel 0 Bank busy for read cycles: 0
Channel 0 Bank busy for write cycles: 0
Channel 0
Rank 0
0banks busy for read cycles: 161721
0banks busy for write cycles: 465
1banks busy for read cycles: 12004377
1banks busy for write cycles: 133430
2banks busy for read cycles: 12908335
2banks busy for write cycles: 139488
3banks busy for read cycles: 9108563
3banks busy for write cycles: 144792
4banks busy for read cycles: 5186501
4banks busy for write cycles: 148049
5banks busy for read cycles: 1949053
5banks busy for write cycles: 161136
6banks busy for read cycles: 684543
6banks busy for write cycles: 197399
7banks busy for read cycles: 382876
7banks busy for write cycles: 561864
8banks busy for read cycles: 237281
8banks busy for write cycles: 7611701

CPU 0 Branch Prediction Accuracy: 99.186% MPKI: 0.0562 Average ROB Occupancy at Mispredict: 60.2082
Branch types
NOT_BRANCH: 49654460 99.3089%
BRANCH_DIRECT_JUMP: 0 0%
BRANCH_INDIRECT: 0 0%
BRANCH_CONDITIONAL: 345199 0.690398%
BRANCH_DIRECT_CALL: 0 0%
BRANCH_INDIRECT_CALL: 0 0%
BRANCH_RETURN: 0 0%
BRANCH_OTHER: 0 0%

@sumon_overall_L1D    648855      3263    461699   1110530   4623148   4628534
@Sumon_Early_by_class_L1D     71408    576508       939         0
@Sumon_Late_by_class_L1D      2792       348         3         0

@Sumon_Early_by_cycle_L1D      4171     10070     21340     46314     18224    493377     52326       158      1544       906       425         0
@Sumon_Late_by_cycle_L1D      1686       977       497        91        12         0         0         0         0         0         0         0
@Sumon_Early_stream_L1D      3127      5784     15933     40282      2749      3529         4         0         0         0         0         0
@Sumon_Early_CS_L1D      1041      4279      5382      6025     15473    489834     52310         5       828       906       425         0
@Sumon_Early_CPLX_L1D         3         7        25         7         2        14        12       153       716         0         0         0
@Sumon_Late_stream_L1D      1327       879       485        89        12         0         0         0         0         0         0         0
@Sumon_Late_CS_L1D       237        97        12         2         0         0         0         0         0         0         0         0
@Sumon_Late_CPLX_L1D         2         1         0         0         0         0         0         0         0         0         0         0
@sumon_overall_L2C    138109         0    702416    839999       202       202
@Sumon_Early_by_class_L2C      6924    130881       297         0
@Sumon_Late_by_class_L2C         0         0         0         0

@Sumon_Early_by_cycle_L2C        66       720      3185      2928      3375     73730     50783        37      1326       982       977         0
@Sumon_Late_by_cycle_L2C         0         0         0         0         0         0         0         0         0         0         0         0
@Sumon_Early_stream_L2C        58       576      2370      1533      1105      1271         3         0         7         1         0         0
@Sumon_Early_CS_L2C         5       140       806      1387      2268     72454     50779         7      1078       981       976         0
@Sumon_Early_CPLX_L2C         0         3         9         8         2         5         1        30       239         0         0         0
@Sumon_Late_stream_L2C         0         0         0         0         0         0         0         0         0         0         0         0
@Sumon_Late_CS_L2C         0         0         0         0         0         0         0         0         0         0         0         0
@Sumon_Late_CPLX_L2C         0         0         0         0         0         0         0         0         0         0         0         0
DRAM PAGES: 1048576
Allocated PAGES: 13917
