
*** ChampSim Multicore Out-of-Order Simulator ***

Warmup Instructions: 10000000
Simulation Instructions: 50000000
Number of CPUs: 1
LLC sets: 2048
LLC ways: 16
Off-chip DRAM Size: 4096 MB Channels: 1 Width: 64-bit Data Rate: 6400 MT/s
CPU 0 runs traces/SPEC2017/602.gcc_s-734B.champsimtrace.xz
.xz
CPU 0 Bimodal branch predictor
BTB has LRU replacement policy
ITLB has LRU replacement policy
DTLB has LRU replacement policy
STLB has LRU replacement policy
L1I has LRU replacement policy
IP Table Entries: 256
L1D has LRU replacement policy
IP_Table L2 entries: 256
Initialize SRRIP state for L2C
LLC has LRU replacement policy
Heartbeat CPU 0 instructions: 10000002 cycles: 3229213 heartbeat IPC: 3.09673 cumulative IPC: 3.09673 (Simulation time: 0 hr 23 min 42 sec) 

Warmup complete CPU 0 instructions: 10000002 cycles: 3229213 (Simulation time: 0 hr 23 min 42 sec) 

Heartbeat CPU 0 instructions: 20000000 cycles: 28305533 heartbeat IPC: 0.398783 cumulative IPC: 0.398783 (Simulation time: 0 hr 45 min 15 sec) 
Heartbeat CPU 0 instructions: 30000000 cycles: 53189322 heartbeat IPC: 0.401868 cumulative IPC: 0.400319 (Simulation time: 1 hr 6 min 41 sec) 
Heartbeat CPU 0 instructions: 40000002 cycles: 78285894 heartbeat IPC: 0.398461 cumulative IPC: 0.399698 (Simulation time: 1 hr 28 min 25 sec) 
Heartbeat CPU 0 instructions: 50000000 cycles: 103039668 heartbeat IPC: 0.403979 cumulative IPC: 0.40076 (Simulation time: 1 hr 48 min 43 sec) 
Heartbeat CPU 0 instructions: 60000000 cycles: 127827849 heartbeat IPC: 0.403418 cumulative IPC: 0.401288 (Simulation time: 2 hr 2 min 54 sec) 
Finished CPU 0 instructions: 50000000 cycles: 124598650 cumulative IPC: 0.401288 (Simulation time: 2 hr 2 min 54 sec) 

ChampSim completed all CPUs

Region of Interest Statistics

CPU 0 cumulative IPC: 0.401288 instructions: 50000000 cycles: 124598650
ITLB TOTAL     ACCESS:    7536536  HIT:    7536534  MISS:          2  HIT %:        100  MISS %: 2.65374e-05   MPKI: 4e-05
ITLB LOAD TRANSLATION ACCESS:    7536536  HIT:    7536534  MISS:          2  HIT %:        100  MISS %: 2.65374e-05   MPKI: 4e-05
ITLB PREFETCH  REQUESTED:          0  ISSUED:          0  USEFUL:          0  USELESS:          0
ITLB USEFUL LOAD PREFETCHES:          0 PREFETCH ISSUED TO LOWER LEVEL:          0  ACCURACY: -nan
ITLB TIMELY PREFETCHES:          0 LATE PREFETCHES: 0 DROPPED PREFETCHES: 0
ITLB PREFETCHES SAME FILL-ORIGIN LEVEL: 0 DIFFERENT FILL-ORIGIN LEVEL: 0
ITLB AVERAGE MISS LATENCY: 588 cycles
ITLB RQ	ACCESS:    8174493	FORWARD:          0	MERGED:     637957	TO_CACHE:    7536536

DTLB TOTAL     ACCESS:   14735092  HIT:   14720728  MISS:      14364  HIT %:    99.9025  MISS %:  0.0974816   MPKI: 0.28728
DTLB LOAD TRANSLATION ACCESS:   14735092  HIT:   14720728  MISS:      14364  HIT %:    99.9025  MISS %:  0.0974816   MPKI: 0.28728
DTLB PREFETCH  REQUESTED:          0  ISSUED:          0  USEFUL:          0  USELESS:          0
DTLB USEFUL LOAD PREFETCHES:          0 PREFETCH ISSUED TO LOWER LEVEL:          0  ACCURACY: -nan
DTLB TIMELY PREFETCHES:          0 LATE PREFETCHES: 0 DROPPED PREFETCHES: 0
DTLB PREFETCHES SAME FILL-ORIGIN LEVEL: 0 DIFFERENT FILL-ORIGIN LEVEL: 0
DTLB AVERAGE MISS LATENCY: 101.249 cycles
DTLB RQ	ACCESS:   14959269	FORWARD:          0	MERGED:     223869	TO_CACHE:   14735400

STLB TOTAL     ACCESS:     820462  HIT:     810199  MISS:      10263  HIT %:    98.7491  MISS %:    1.25088   MPKI: 0.20526
STLB LOAD TRANSLATION ACCESS:      14366  HIT:       4104  MISS:      10262  HIT %:    28.5675  MISS %:    71.4325   MPKI: 0.20524
STLB TRANSLATION FROM L1D PREFETCHER ACCESS:     806096  HIT:     806095  MISS:          1  HIT %:    99.9999  MISS %: 0.000124055   MPKI: 2e-05
STLB PREFETCH  REQUESTED:          0  ISSUED:          0  USEFUL:          1  USELESS:          0
STLB USEFUL LOAD PREFETCHES:          1 PREFETCH ISSUED TO LOWER LEVEL:          0  ACCURACY: inf
STLB TIMELY PREFETCHES:          1 LATE PREFETCHES: 0 DROPPED PREFETCHES: 0
STLB PREFETCHES SAME FILL-ORIGIN LEVEL: 0 DIFFERENT FILL-ORIGIN LEVEL: 0
STLB AVERAGE MISS LATENCY: 129.23 cycles
STLB RQ	ACCESS:    1245672	FORWARD:          0	MERGED:     425210	TO_CACHE:     820462

STLB Hit, L1D data hit: 0
STLB Hit, L2C data hit: 0
STLB Hit, LLC data hit: 0
STLB Hit, LLC data miss: 0
STLB STLB hints to L2: 0
L1D TOTAL     ACCESS:   16185200  HIT:   15258009  MISS:     927191  HIT %:    94.2714  MISS %:    5.72863   MPKI: 18.5438
L1D LOAD      ACCESS:    9941489  HIT:    9902511  MISS:      38978  HIT %:    99.6079  MISS %:   0.392074   MPKI: 0.77956
L1D RFO       ACCESS:    5013981  HIT:    5013942  MISS:         39  HIT %:    99.9992  MISS %: 0.000777825   MPKI: 0.00078
L1D PREFETCH  ACCESS:    1229730  HIT:     341556  MISS:     888174  HIT %:    27.7749  MISS %:    72.2251   MPKI: 17.7635
L1D PREFETCH  REQUESTED:    2462676  ISSUED:    2462615  USEFUL:     767728  USELESS:     120406
L1D USEFUL LOAD PREFETCHES:     767728 PREFETCH ISSUED TO LOWER LEVEL:     890271  ACCURACY: 86.2353
L1D TIMELY PREFETCHES:     767728 LATE PREFETCHES: 243 DROPPED PREFETCHES: 0
L1D PREFETCHES SAME FILL-ORIGIN LEVEL: 890271 DIFFERENT FILL-ORIGIN LEVEL: 0
L1D AVERAGE MISS LATENCY: 16754.1 cycles
L1D RQ	ACCESS:   13120682	FORWARD:          0	MERGED:    3172721	TO_CACHE:    9945268
L1D WQ	ACCESS:    5633019	FORWARD:       2696	MERGED:     619018	TO_CACHE:    5014001
L1D PQ	ACCESS:    1231309	FORWARD:          0	MERGED:          0	TO_CACHE:    1231306

L1D UNIQUE REGIONS ACCESSED: 0
L1D REGIONS CONFLICTS: 0
L1D Cross Page Prefetch Requests: 0
L1D Same Page Prefetch Requests: 1428781
L1D ROI Sum of L1D PQ occupancy: 16554540
L1D PREFETCHES PUSHED FROM L2C: 0
L1I TOTAL     ACCESS:    8174489  HIT:    8174434  MISS:         55  HIT %:    99.9993  MISS %: 0.000672825   MPKI: 0.0011
L1I LOAD      ACCESS:    8174489  HIT:    8174434  MISS:         55  HIT %:    99.9993  MISS %: 0.000672825   MPKI: 0.0011
L1I PREFETCH  REQUESTED:          0  ISSUED:          0  USEFUL:          0  USELESS:          0
L1I USEFUL LOAD PREFETCHES:          0 PREFETCH ISSUED TO LOWER LEVEL:          0  ACCURACY: -nan
L1I TIMELY PREFETCHES:          0 LATE PREFETCHES: 0 DROPPED PREFETCHES: 0
L1I PREFETCHES SAME FILL-ORIGIN LEVEL: 0 DIFFERENT FILL-ORIGIN LEVEL: 0
L1I AVERAGE MISS LATENCY: 205.982 cycles
L1I RQ	ACCESS:   13812037	FORWARD:          0	MERGED:    5637544	TO_CACHE:    8174493

BTB TOTAL     ACCESS:    9209262  HIT:    9202771  MISS:       6491  HIT %:    99.9295  MISS %:  0.0704834   MPKI: 0.12982
BTB BRANCH_DIRECT_JUMP	ACCESS:    1247487  HIT:    1247450  MISS:         37
BTB BRANCH_INDIRECT	ACCESS:          0  HIT:          0  MISS:          0
BTB BRANCH_CONDITIONAL	ACCESS:    6708204  HIT:    6708123  MISS:         81
BTB BRANCH_DIRECT_CALL	ACCESS:     626785  HIT:     626768  MISS:         17
BTB BRANCH_INDIRECT_CALL	ACCESS:          0  HIT:          0  MISS:          0
BTB BRANCH_RETURN	ACCESS:     626786  HIT:     620430  MISS:       6356
BTB BRANCH_OTHER ACCESS:          0  HIT:          0  MISS:          0

L2C TOTAL     ACCESS:    4563460  HIT:    4080654  MISS:     482806  HIT %:    89.4202  MISS %:    10.5798   MPKI: 9.65612
L2C LOAD      ACCESS:      38790  HIT:      25455  MISS:      13335  HIT %:    65.6226  MISS %:    34.3774   MPKI: 0.2667
L2C DATA LOAD MPKI: 0.2656
L2C INSTRUCTION LOAD MPKI: 0.0011
L2C RFO       ACCESS:         39  HIT:         31  MISS:          8  HIT %:    79.4872  MISS %:    20.5128   MPKI: 0.00016
L2C PREFETCH  ACCESS:    4505568  HIT:    4040281  MISS:     465287  HIT %:    89.6731  MISS %:    10.3269   MPKI: 9.30574
L2C DATA PREFETCH MPKI: 9.30574
L2C INSTRUCTION PREFETCH MPKI: 0
L2C WRITEBACK ACCESS:       7982  HIT:       7954  MISS:         28  HIT %:    99.6492  MISS %:   0.350789   MPKI: 0.00056
L2C LOAD TRANSLATION ACCESS:      11080  HIT:       6933  MISS:       4147  HIT %:    62.5722  MISS %:    37.4278   MPKI: 0.08294
L2C TRANSLATION FROM L1D PREFETCHER ACCESS:          1  HIT:          0  MISS:          1  HIT %:          0  MISS %:        100   MPKI: 2e-05
L2C PREFETCH  REQUESTED:    4007990  ISSUED:    4005026  USEFUL:       5182  USELESS:     459613
L2C USEFUL LOAD PREFETCHES:       5182 PREFETCH ISSUED TO LOWER LEVEL:     465325  ACCURACY: 1.11363
L2C TIMELY PREFETCHES:       5182 LATE PREFETCHES: 37 DROPPED PREFETCHES: 0
L2C PREFETCHES SAME FILL-ORIGIN LEVEL: 372265 DIFFERENT FILL-ORIGIN LEVEL: 0
L2C AVERAGE MISS LATENCY: 115.371 cycles
L2C RQ	ACCESS:      49910	FORWARD:          0	MERGED:          0	TO_CACHE:      49910
L2C WQ	ACCESS:       7982	FORWARD:          0	MERGED:          0	TO_CACHE:       7982
L2C PQ	ACCESS:    4893443	FORWARD:          0	MERGED:     382580	TO_CACHE:    4510863

L2C Instructions Evicting Data 54
L2C Translations Evicting Data 4125
L2C Data Evicting Data 474375
L2C Instructions Evicting Instructions 0
L2C Translations Evicting Instructions 0
L2C Data Evicting Instructions 55
L2C Instructions Evicting Translations 1
L2C Translations Evicting Translations 23
L2C Data Evicting Translations 4145
L2C Dense regions hint from L2: 0
PSCL5 TOTAL     ACCESS:      10263  HIT:      10263  MISS:          0  HIT %:        100  MISS %:          0   MPKI: 0
PSCL5 LOAD TRANSLATION ACCESS:      10262  HIT:      10262  MISS:          0  HIT %:        100  MISS %:          0   MPKI: 0
PSCL5 TRANSLATION FROM L1D PREFETCHER ACCESS:          1  HIT:          1  MISS:          0  HIT %:        100  MISS %:          0   MPKI: 0
PSCL5 PREFETCH  REQUESTED:          0  ISSUED:          0  USEFUL:          0  USELESS:          0
PSCL5 USEFUL LOAD PREFETCHES:          0 PREFETCH ISSUED TO LOWER LEVEL:          0  ACCURACY: -nan
PSCL5 TIMELY PREFETCHES:          0 LATE PREFETCHES: 0 DROPPED PREFETCHES: 0
PSCL5 PREFETCHES SAME FILL-ORIGIN LEVEL: 0 DIFFERENT FILL-ORIGIN LEVEL: 0

PSCL4 TOTAL     ACCESS:      10263  HIT:      10263  MISS:          0  HIT %:        100  MISS %:          0   MPKI: 0
PSCL4 LOAD TRANSLATION ACCESS:      10262  HIT:      10262  MISS:          0  HIT %:        100  MISS %:          0   MPKI: 0
PSCL4 TRANSLATION FROM L1D PREFETCHER ACCESS:          1  HIT:          1  MISS:          0  HIT %:        100  MISS %:          0   MPKI: 0
PSCL4 PREFETCH  REQUESTED:          0  ISSUED:          0  USEFUL:          0  USELESS:          0
PSCL4 USEFUL LOAD PREFETCHES:          0 PREFETCH ISSUED TO LOWER LEVEL:          0  ACCURACY: -nan
PSCL4 TIMELY PREFETCHES:          0 LATE PREFETCHES: 0 DROPPED PREFETCHES: 0
PSCL4 PREFETCHES SAME FILL-ORIGIN LEVEL: 0 DIFFERENT FILL-ORIGIN LEVEL: 0

PSCL3 TOTAL     ACCESS:      10263  HIT:      10262  MISS:          1  HIT %:    99.9903  MISS %: 0.00974374   MPKI: 2e-05
PSCL3 LOAD TRANSLATION ACCESS:      10262  HIT:      10261  MISS:          1  HIT %:    99.9903  MISS %: 0.00974469   MPKI: 2e-05
PSCL3 TRANSLATION FROM L1D PREFETCHER ACCESS:          1  HIT:          1  MISS:          0  HIT %:        100  MISS %:          0   MPKI: 0
PSCL3 PREFETCH  REQUESTED:          0  ISSUED:          0  USEFUL:          0  USELESS:          0
PSCL3 USEFUL LOAD PREFETCHES:          0 PREFETCH ISSUED TO LOWER LEVEL:          0  ACCURACY: -nan
PSCL3 TIMELY PREFETCHES:          0 LATE PREFETCHES: 0 DROPPED PREFETCHES: 0
PSCL3 PREFETCHES SAME FILL-ORIGIN LEVEL: 0 DIFFERENT FILL-ORIGIN LEVEL: 0

PSCL2 TOTAL     ACCESS:      10263  HIT:       9309  MISS:        954  HIT %:    90.7045  MISS %:    9.29553   MPKI: 0.01908
PSCL2 LOAD TRANSLATION ACCESS:      10262  HIT:       9308  MISS:        954  HIT %:    90.7036  MISS %:    9.29643   MPKI: 0.01908
PSCL2 TRANSLATION FROM L1D PREFETCHER ACCESS:          1  HIT:          1  MISS:          0  HIT %:        100  MISS %:          0   MPKI: 0
PSCL2 PREFETCH  REQUESTED:          0  ISSUED:          0  USEFUL:          0  USELESS:          0
PSCL2 USEFUL LOAD PREFETCHES:          0 PREFETCH ISSUED TO LOWER LEVEL:          0  ACCURACY: -nan
PSCL2 TIMELY PREFETCHES:          0 LATE PREFETCHES: 0 DROPPED PREFETCHES: 0
PSCL2 PREFETCHES SAME FILL-ORIGIN LEVEL: 0 DIFFERENT FILL-ORIGIN LEVEL: 0

LLC TOTAL     ACCESS:     486050  HIT:      11859  MISS:     474191  HIT %:    2.43987  MISS %:    97.5601   MPKI: 9.48382
LLC LOAD      ACCESS:      13298  HIT:        352  MISS:      12946  HIT %:    2.64701  MISS %:     97.353   MPKI: 0.25892
LLC RFO       ACCESS:          8  HIT:          2  MISS:          6  HIT %:         25  MISS %:         75   MPKI: 0.00012
LLC PREFETCH  ACCESS:     465324  HIT:       8326  MISS:     456998  HIT %:    1.78929  MISS %:    98.2107   MPKI: 9.13996
LLC WRITEBACK ACCESS:       3272  HIT:       2689  MISS:        583  HIT %:    82.1822  MISS %:    17.8178   MPKI: 0.01166
LLC LOAD TRANSLATION ACCESS:       4147  HIT:        490  MISS:       3657  HIT %:    11.8158  MISS %:    88.1842   MPKI: 0.07314
LLC TRANSLATION FROM L1D PREFETCHER ACCESS:          1  HIT:          0  MISS:          1  HIT %:          0  MISS %:        100   MPKI: 2e-05
LLC PREFETCH  REQUESTED:          0  ISSUED:          0  USEFUL:        232  USELESS:     456442
LLC USEFUL LOAD PREFETCHES:        232 PREFETCH ISSUED TO LOWER LEVEL:     456999  ACCURACY: 0.050766
LLC TIMELY PREFETCHES:        232 LATE PREFETCHES: 0 DROPPED PREFETCHES: 0
LLC PREFETCHES SAME FILL-ORIGIN LEVEL: 0 DIFFERENT FILL-ORIGIN LEVEL: 0
LLC AVERAGE MISS LATENCY: 86.7721 cycles
LLC RQ	ACCESS:      17454	FORWARD:          0	MERGED:          0	TO_CACHE:      17454
LLC WQ	ACCESS:       3272	FORWARD:          0	MERGED:          0	TO_CACHE:       3272
LLC PQ	ACCESS:     465325	FORWARD:          0	MERGED:          0	TO_CACHE:     465325

LLC Dense regions hint to LLC: 0

RAW hits: 7380
Loads Generated: 13128062
Loads sent to L1D: 13120682
Stores Generated: 5633019
Stores sent to L1D: 5633019
Major fault: 0 Minor fault: 6201
Allocated PAGES: 6201

stream: 
stream:times selected: 4452264
stream:pref_filled: 967145
stream:pref_useful: 851012
stream:pref_late: 265
stream:misses: 2712
stream:misses_by_poll: 0

CS: 
CS:times selected: 3680739
CS:pref_filled: 5441
CS:pref_useful: 5037
CS:pref_late: 4
CS:misses: 20717
CS:misses_by_poll: 26

CPLX: 
CPLX:times selected: 770876
CPLX:pref_filled: 87272
CPLX:pref_useful: 63364
CPLX:pref_late: 45
CPLX:misses: 22569
CPLX:misses_by_poll: 246

NL_L1: 
NL:times selected: 635
NL:pref_filled: 49
NL:pref_useful: 43
NL:pref_late: 2
NL:misses: 15
NL:misses_by_poll: 0

total selections: 8904514
total_filled: 888174
total_useful: 767728
total_late: 333
total_polluted: 272
total_misses_after_warmup: 42757
conflicts: 4681
Degree Incremented Times: 104415
Degree Decremented Times: 0

L1 IP Table Write Accesses: 9931001
L1 IP Table Read Accesses: 9926320
L1 RST Write Accesses: 3695901
L1 RST Read Accesses: 7391802
L1 CSPT Write Accesses: 3695901
L1 CSPT Read Accesses: 5528162
L1 RR Filter Tag Write Accesses: 1231370
L1 RR Filter Tag Read Accesses: 733807252
L1 IP Table Tag Write Accesses: 9945268
L1 IP Table Tag Read Accesses: 9945268
L1 RST Tag Write Accesses: 0
L1 RST Tag Read Accesses: 33139748
L1 RR Filter Write Accesses: 0
L1 RR Filter Read Accesses: 31061179
test: 297419
L2 IP Table Read Accesses: 1599279
L2 IP Table Write Accesses: 1561620
L2 IP Table Tag Read Accesses: 800155
L2 IP Table Tag Write Accesses: 800155

DRAM Statistics
 CHANNEL 0
 RQ ROW_BUFFER_HIT:     415950  ROW_BUFFER_MISS:      57658
 DBUS_CONGESTED:          7
 WQ ROW_BUFFER_HIT:        609  ROW_BUFFER_MISS:       2732  FULL:          0

 AVG_CONGESTED_CYCLE: 7
 All warmup complete: 2
Channel 0 Bank busy for read cycles: 0
Channel 0 Bank busy for write cycles: 0
Channel 0
Rank 0
0banks busy for read cycles: 105008998
0banks busy for write cycles: 2697
1banks busy for read cycles: 16479768
1banks busy for write cycles: 418257
2banks busy for read cycles: 683866
2banks busy for write cycles: 41030
3banks busy for read cycles: 297371
3banks busy for write cycles: 11389
4banks busy for read cycles: 174542
4banks busy for write cycles: 4534
5banks busy for read cycles: 143515
5banks busy for write cycles: 1882
6banks busy for read cycles: 286576
6banks busy for write cycles: 922
7banks busy for read cycles: 770550
7banks busy for write cycles: 163
8banks busy for read cycles: 272238
8banks busy for write cycles: 353

CPU 0 Branch Prediction Accuracy: 94.7226% MPKI: 12.5192 Average ROB Occupancy at Mispredict: 59.1196
Branch types
NOT_BRANCH: 38138565 76.2771%
BRANCH_DIRECT_JUMP: 1247487 2.49497%
BRANCH_INDIRECT: 0 0%
BRANCH_CONDITIONAL: 9360076 18.7202%
BRANCH_DIRECT_CALL: 626785 1.25357%
BRANCH_INDIRECT_CALL: 0 0%
BRANCH_RETURN: 626786 1.25357%
BRANCH_OTHER: 0 0%

@sumon_overall_L1D    767728       243    120406    888174   2462615   2462676
@Sumon_Early_by_class_L1D    707787      4292     55609         2
@Sumon_Late_by_class_L1D       189         4        34         2

@Sumon_Early_by_cycle_L1D       658      5527     11835     12911     16752    650385     31240     20249      2903      3723     11490        55
@Sumon_Late_by_cycle_L1D       209        33         1         0         0         0         0         0         0         0         0         0
@Sumon_Early_stream_L1D       620      5262     11334     11952     13645    635220     13666       345      1068      3495     11176         4
@Sumon_Early_CS_L1D        13        90       143       374      2105      1074       144        77        88       121        63         0
@Sumon_Early_CPLX_L1D        23       164       336       581      1002     14090     17430     19827      1747       107       251        51
@Sumon_Late_stream_L1D       159        29         1         0         0         0         0         0         0         0         0         0
@Sumon_Late_CS_L1D         4         0         0         0         0         0         0         0         0         0         0         0
@Sumon_Late_CPLX_L1D        30         4         0         0         0         0         0         0         0         0         0         0
@sumon_overall_L2C      5182        37    459613    465288   4005026   4007990
@Sumon_Early_by_class_L2C      4903        49       222         0
@Sumon_Late_by_class_L2C        33         0         0         0

@Sumon_Early_by_cycle_L2C        24        36        52        21        23        84       279         6         5         7        11      4634
@Sumon_Late_by_cycle_L2C        20        17         0         0         0         0         0         0         0         0         0         0
@Sumon_Early_stream_L2C        21        36        52        20        23        82       279         6         5         7        11      4361
@Sumon_Early_CS_L2C         0         0         0         0         0         1         0         0         0         0         0        48
@Sumon_Early_CPLX_L2C         0         0         0         0         0         0         0         0         0         0         0       222
@Sumon_Late_stream_L2C        17        16         0         0         0         0         0         0         0         0         0         0
@Sumon_Late_CS_L2C         0         0         0         0         0         0         0         0         0         0         0         0
@Sumon_Late_CPLX_L2C         0         0         0         0         0         0         0         0         0         0         0         0
DRAM PAGES: 1048576
Allocated PAGES: 6201
