
*** ChampSim Multicore Out-of-Order Simulator ***

Warmup Instructions: 10000000
Simulation Instructions: 50000000
Number of CPUs: 1
LLC sets: 2048
LLC ways: 16
Off-chip DRAM Size: 4096 MB Channels: 1 Width: 64-bit Data Rate: 6400 MT/s
CPU 0 runs traces/SPEC2017/603.bwaves_s-2609B.champsimtrace.xz
.xz
CPU 0 Bimodal branch predictor
BTB has LRU replacement policy
ITLB has LRU replacement policy
DTLB has LRU replacement policy
STLB has LRU replacement policy
L1I has LRU replacement policy
IP Table Entries: 256
L1D has LRU replacement policy
IP_Table L2 entries: 256
Initialize SRRIP state for L2C
LLC has LRU replacement policy
Heartbeat CPU 0 instructions: 10000002 cycles: 3308730 heartbeat IPC: 3.02231 cumulative IPC: 3.02231 (Simulation time: 0 hr 29 min 18 sec) 

Warmup complete CPU 0 instructions: 10000002 cycles: 3308730 (Simulation time: 0 hr 29 min 18 sec) 

Heartbeat CPU 0 instructions: 20000000 cycles: 13727701 heartbeat IPC: 0.959787 cumulative IPC: 0.959787 (Simulation time: 0 hr 47 min 28 sec) 
Heartbeat CPU 0 instructions: 30000001 cycles: 24141247 heartbeat IPC: 0.960288 cumulative IPC: 0.960038 (Simulation time: 1 hr 5 min 53 sec) 
Heartbeat CPU 0 instructions: 40000000 cycles: 34559053 heartbeat IPC: 0.959895 cumulative IPC: 0.95999 (Simulation time: 1 hr 24 min 10 sec) 
Heartbeat CPU 0 instructions: 50000002 cycles: 44971268 heartbeat IPC: 0.960411 cumulative IPC: 0.960095 (Simulation time: 1 hr 42 min 10 sec) 
Heartbeat CPU 0 instructions: 60000000 cycles: 55386519 heartbeat IPC: 0.96013 cumulative IPC: 0.960102 (Simulation time: 1 hr 56 min 50 sec) 
Finished CPU 0 instructions: 50000000 cycles: 52077790 cumulative IPC: 0.960102 (Simulation time: 1 hr 56 min 50 sec) 

ChampSim completed all CPUs

Region of Interest Statistics

CPU 0 cumulative IPC: 0.960102 instructions: 50000000 cycles: 52077790
ITLB TOTAL     ACCESS:    6356518  HIT:    6356518  MISS:          0  HIT %:        100  MISS %:          0   MPKI: 0
ITLB LOAD TRANSLATION ACCESS:    6356518  HIT:    6356518  MISS:          0  HIT %:        100  MISS %:          0   MPKI: 0
ITLB PREFETCH  REQUESTED:          0  ISSUED:          0  USEFUL:          0  USELESS:          0
ITLB USEFUL LOAD PREFETCHES:          0 PREFETCH ISSUED TO LOWER LEVEL:          0  ACCURACY: -nan
ITLB TIMELY PREFETCHES:          0 LATE PREFETCHES: 0 DROPPED PREFETCHES: 0
ITLB PREFETCHES SAME FILL-ORIGIN LEVEL: 0 DIFFERENT FILL-ORIGIN LEVEL: 0
ITLB AVERAGE MISS LATENCY: -nan cycles
ITLB RQ	ACCESS:    8463103	FORWARD:          0	MERGED:    2106585	TO_CACHE:    6356518

DTLB TOTAL     ACCESS:   17197061  HIT:   17160765  MISS:      36296  HIT %:    99.7889  MISS %:   0.211059   MPKI: 0.72592
DTLB LOAD TRANSLATION ACCESS:   17197061  HIT:   17160765  MISS:      36296  HIT %:    99.7889  MISS %:   0.211059   MPKI: 0.72592
DTLB PREFETCH  REQUESTED:          0  ISSUED:          0  USEFUL:          0  USELESS:          0
DTLB USEFUL LOAD PREFETCHES:          0 PREFETCH ISSUED TO LOWER LEVEL:          0  ACCURACY: -nan
DTLB TIMELY PREFETCHES:          0 LATE PREFETCHES: 0 DROPPED PREFETCHES: 0
DTLB PREFETCHES SAME FILL-ORIGIN LEVEL: 0 DIFFERENT FILL-ORIGIN LEVEL: 0
DTLB AVERAGE MISS LATENCY: 212.432 cycles
DTLB RQ	ACCESS:   19656933	FORWARD:          0	MERGED:    2455622	TO_CACHE:   17201311

STLB TOTAL     ACCESS:    3756293  HIT:    3741450  MISS:      14843  HIT %:    99.6048  MISS %:    0.39515   MPKI: 0.29686
STLB LOAD TRANSLATION ACCESS:      36296  HIT:      21453  MISS:      14843  HIT %:    59.1057  MISS %:    40.8943   MPKI: 0.29686
STLB TRANSLATION FROM L1D PREFETCHER ACCESS:    3719997  HIT:    3719997  MISS:          0  HIT %:        100  MISS %:          0   MPKI: 0
STLB PREFETCH  REQUESTED:          0  ISSUED:          0  USEFUL:          0  USELESS:          0
STLB USEFUL LOAD PREFETCHES:          0 PREFETCH ISSUED TO LOWER LEVEL:          0  ACCURACY: -nan
STLB TIMELY PREFETCHES:          0 LATE PREFETCHES: 0 DROPPED PREFETCHES: 0
STLB PREFETCHES SAME FILL-ORIGIN LEVEL: 0 DIFFERENT FILL-ORIGIN LEVEL: 0
STLB AVERAGE MISS LATENCY: 469.97 cycles
STLB RQ	ACCESS:   17444125	FORWARD:          0	MERGED:   13687833	TO_CACHE:    3756292

STLB Hit, L1D data hit: 0
STLB Hit, L2C data hit: 0
STLB Hit, LLC data hit: 0
STLB Hit, LLC data miss: 0
STLB STLB hints to L2: 0
L1D TOTAL     ACCESS:   37032347  HIT:   36028685  MISS:    1003662  HIT %:    97.2898  MISS %:    2.71023   MPKI: 20.0732
L1D LOAD      ACCESS:   16837410  HIT:   16787749  MISS:      49661  HIT %:    99.7051  MISS %:   0.294944   MPKI: 0.99322
L1D RFO       ACCESS:    2807588  HIT:    2783226  MISS:      24362  HIT %:    99.1323  MISS %:    0.86772   MPKI: 0.48724
L1D PREFETCH  ACCESS:   17387349  HIT:   16457710  MISS:     929639  HIT %:    94.6534  MISS %:    5.34664   MPKI: 18.5928
L1D PREFETCH  REQUESTED:   49499824  ISSUED:   34847134  USEFUL:     925567  USELESS:       4069
L1D USEFUL LOAD PREFETCHES:     925567 PREFETCH ISSUED TO LOWER LEVEL:     979830  ACCURACY: 94.462
L1D TIMELY PREFETCHES:     925567 LATE PREFETCHES: 2031 DROPPED PREFETCHES: 0
L1D PREFETCHES SAME FILL-ORIGIN LEVEL: 979830 DIFFERENT FILL-ORIGIN LEVEL: 0
L1D AVERAGE MISS LATENCY: 59741.1 cycles
L1D RQ	ACCESS:   21266442	FORWARD:          0	MERGED:    4358856	TO_CACHE:   16840278
L1D WQ	ACCESS:    2816699	FORWARD:      67308	MERGED:         44	TO_CACHE:    2816655
L1D PQ	ACCESS:   17439305	FORWARD:          0	MERGED:      31476	TO_CACHE:   17407829

L1D UNIQUE REGIONS ACCESSED: 0
L1D REGIONS CONFLICTS: 0
L1D Cross Page Prefetch Requests: 0
L1D Same Page Prefetch Requests: 20197748
L1D ROI Sum of L1D PQ occupancy: 264148702
L1D PREFETCHES PUSHED FROM L2C: 0
L1I TOTAL     ACCESS:    8463103  HIT:    8463103  MISS:          0  HIT %:        100  MISS %:          0   MPKI: 0
L1I LOAD      ACCESS:    8463103  HIT:    8463103  MISS:          0  HIT %:        100  MISS %:          0   MPKI: 0
L1I PREFETCH  REQUESTED:          0  ISSUED:          0  USEFUL:          0  USELESS:          0
L1I USEFUL LOAD PREFETCHES:          0 PREFETCH ISSUED TO LOWER LEVEL:          0  ACCURACY: -nan
L1I TIMELY PREFETCHES:          0 LATE PREFETCHES: 0 DROPPED PREFETCHES: 0
L1I PREFETCHES SAME FILL-ORIGIN LEVEL: 0 DIFFERENT FILL-ORIGIN LEVEL: 0
L1I AVERAGE MISS LATENCY: -nan cycles
L1I RQ	ACCESS:   11737572	FORWARD:          0	MERGED:    3274469	TO_CACHE:    8463103

BTB TOTAL     ACCESS:    1208719  HIT:    1208714  MISS:          5  HIT %:    99.9996  MISS %: 0.000413661   MPKI: 0.0001
BTB BRANCH_DIRECT_JUMP	ACCESS:          0  HIT:          0  MISS:          0
BTB BRANCH_INDIRECT	ACCESS:          0  HIT:          0  MISS:          0
BTB BRANCH_CONDITIONAL	ACCESS:    1208719  HIT:    1208714  MISS:          5
BTB BRANCH_DIRECT_CALL	ACCESS:          0  HIT:          0  MISS:          0
BTB BRANCH_INDIRECT_CALL	ACCESS:          0  HIT:          0  MISS:          0
BTB BRANCH_RETURN	ACCESS:          0  HIT:          0  MISS:          0
BTB BRANCH_OTHER ACCESS:          0  HIT:          0  MISS:          0

L2C TOTAL     ACCESS:    4028755  HIT:    3073659  MISS:     955096  HIT %:     76.293  MISS %:     23.707   MPKI: 19.1019
L2C LOAD      ACCESS:      47630  HIT:      27658  MISS:      19972  HIT %:    58.0684  MISS %:    41.9316   MPKI: 0.39944
L2C DATA LOAD MPKI: 0.39944
L2C INSTRUCTION LOAD MPKI: 0
L2C RFO       ACCESS:      24362  HIT:          0  MISS:      24362  HIT %:          0  MISS %:        100   MPKI: 0.48724
L2C PREFETCH  ACCESS:    3917177  HIT:    3010614  MISS:     906563  HIT %:    76.8567  MISS %:    23.1433   MPKI: 18.1313
L2C DATA PREFETCH MPKI: 18.1313
L2C INSTRUCTION PREFETCH MPKI: 0
L2C WRITEBACK ACCESS:      24741  HIT:      22613  MISS:       2128  HIT %:    91.3989  MISS %:    8.60111   MPKI: 0.04256
L2C LOAD TRANSLATION ACCESS:      14845  HIT:      12774  MISS:       2071  HIT %:    86.0492  MISS %:    13.9508   MPKI: 0.04142
L2C PREFETCH  REQUESTED:    4909541  ISSUED:    4529290  USEFUL:      26176  USELESS:     880595
L2C USEFUL LOAD PREFETCHES:      26176 PREFETCH ISSUED TO LOWER LEVEL:     907262  ACCURACY: 2.88516
L2C TIMELY PREFETCHES:      26176 LATE PREFETCHES: 691 DROPPED PREFETCHES: 0
L2C PREFETCHES SAME FILL-ORIGIN LEVEL: 815476 DIFFERENT FILL-ORIGIN LEVEL: 0
L2C AVERAGE MISS LATENCY: 174.573 cycles
L2C RQ	ACCESS:      86837	FORWARD:          0	MERGED:          0	TO_CACHE:      86837
L2C WQ	ACCESS:      24741	FORWARD:          0	MERGED:          0	TO_CACHE:      24741
L2C PQ	ACCESS:    5460959	FORWARD:          0	MERGED:    1356979	TO_CACHE:    4103980

L2C Instructions Evicting Data 0
L2C Translations Evicting Data 2071
L2C Data Evicting Data 948830
L2C Instructions Evicting Instructions 0
L2C Translations Evicting Instructions 0
L2C Data Evicting Instructions 0
L2C Instructions Evicting Translations 0
L2C Translations Evicting Translations 0
L2C Data Evicting Translations 2067
L2C Dense regions hint from L2: 0
PSCL5 TOTAL     ACCESS:      14843  HIT:      14843  MISS:          0  HIT %:        100  MISS %:          0   MPKI: 0
PSCL5 LOAD TRANSLATION ACCESS:      14843  HIT:      14843  MISS:          0  HIT %:        100  MISS %:          0   MPKI: 0
PSCL5 PREFETCH  REQUESTED:          0  ISSUED:          0  USEFUL:          0  USELESS:          0
PSCL5 USEFUL LOAD PREFETCHES:          0 PREFETCH ISSUED TO LOWER LEVEL:          0  ACCURACY: -nan
PSCL5 TIMELY PREFETCHES:          0 LATE PREFETCHES: 0 DROPPED PREFETCHES: 0
PSCL5 PREFETCHES SAME FILL-ORIGIN LEVEL: 0 DIFFERENT FILL-ORIGIN LEVEL: 0

PSCL4 TOTAL     ACCESS:      14843  HIT:      14843  MISS:          0  HIT %:        100  MISS %:          0   MPKI: 0
PSCL4 LOAD TRANSLATION ACCESS:      14843  HIT:      14843  MISS:          0  HIT %:        100  MISS %:          0   MPKI: 0
PSCL4 PREFETCH  REQUESTED:          0  ISSUED:          0  USEFUL:          0  USELESS:          0
PSCL4 USEFUL LOAD PREFETCHES:          0 PREFETCH ISSUED TO LOWER LEVEL:          0  ACCURACY: -nan
PSCL4 TIMELY PREFETCHES:          0 LATE PREFETCHES: 0 DROPPED PREFETCHES: 0
PSCL4 PREFETCHES SAME FILL-ORIGIN LEVEL: 0 DIFFERENT FILL-ORIGIN LEVEL: 0

PSCL3 TOTAL     ACCESS:      14843  HIT:      14843  MISS:          0  HIT %:        100  MISS %:          0   MPKI: 0
PSCL3 LOAD TRANSLATION ACCESS:      14843  HIT:      14843  MISS:          0  HIT %:        100  MISS %:          0   MPKI: 0
PSCL3 PREFETCH  REQUESTED:          0  ISSUED:          0  USEFUL:          0  USELESS:          0
PSCL3 USEFUL LOAD PREFETCHES:          0 PREFETCH ISSUED TO LOWER LEVEL:          0  ACCURACY: -nan
PSCL3 TIMELY PREFETCHES:          0 LATE PREFETCHES: 0 DROPPED PREFETCHES: 0
PSCL3 PREFETCHES SAME FILL-ORIGIN LEVEL: 0 DIFFERENT FILL-ORIGIN LEVEL: 0

PSCL2 TOTAL     ACCESS:      14843  HIT:      14812  MISS:         31  HIT %:    99.7911  MISS %:   0.208853   MPKI: 0.00062
PSCL2 LOAD TRANSLATION ACCESS:      14843  HIT:      14812  MISS:         31  HIT %:    99.7911  MISS %:   0.208853   MPKI: 0.00062
PSCL2 PREFETCH  REQUESTED:          0  ISSUED:          0  USEFUL:          0  USELESS:          0
PSCL2 USEFUL LOAD PREFETCHES:          0 PREFETCH ISSUED TO LOWER LEVEL:          0  ACCURACY: -nan
PSCL2 TIMELY PREFETCHES:          0 LATE PREFETCHES: 0 DROPPED PREFETCHES: 0
PSCL2 PREFETCHES SAME FILL-ORIGIN LEVEL: 0 DIFFERENT FILL-ORIGIN LEVEL: 0

LLC TOTAL     ACCESS:     977325  HIT:      25320  MISS:     952005  HIT %:    2.59075  MISS %:    97.4093   MPKI: 19.0401
LLC LOAD      ACCESS:      19281  HIT:          1  MISS:      19280  HIT %: 0.00518645  MISS %:    99.9948   MPKI: 0.3856
LLC RFO       ACCESS:      24362  HIT:          0  MISS:      24362  HIT %:          0  MISS %:        100   MPKI: 0.48724
LLC PREFETCH  ACCESS:     907254  HIT:        778  MISS:     906476  HIT %:  0.0857533  MISS %:    99.9142   MPKI: 18.1295
LLC WRITEBACK ACCESS:      24357  HIT:      24357  MISS:          0  HIT %:        100  MISS %:          0   MPKI: 0
LLC LOAD TRANSLATION ACCESS:       2071  HIT:        184  MISS:       1887  HIT %:     8.8846  MISS %:    91.1154   MPKI: 0.03774
LLC PREFETCH  REQUESTED:          0  ISSUED:          0  USEFUL:          0  USELESS:     906426
LLC USEFUL LOAD PREFETCHES:          0 PREFETCH ISSUED TO LOWER LEVEL:     906483  ACCURACY: 0
LLC TIMELY PREFETCHES:          0 LATE PREFETCHES: 0 DROPPED PREFETCHES: 0
LLC PREFETCHES SAME FILL-ORIGIN LEVEL: 0 DIFFERENT FILL-ORIGIN LEVEL: 0
LLC AVERAGE MISS LATENCY: 143.39 cycles
LLC RQ	ACCESS:      45714	FORWARD:          0	MERGED:          0	TO_CACHE:      45714
LLC WQ	ACCESS:      24357	FORWARD:          0	MERGED:          0	TO_CACHE:      24357
LLC PQ	ACCESS:     907262	FORWARD:          0	MERGED:          0	TO_CACHE:     907262

LLC Dense regions hint to LLC: 0

RAW hits: 223577
Loads Generated: 21490017
Loads sent to L1D: 21266442
Stores Generated: 2816699
Stores sent to L1D: 2816699
Major fault: 0 Minor fault: 17250
Allocated PAGES: 17250

stream: 
stream:times selected: 6905438
stream:pref_filled: 1100478
stream:pref_useful: 1100267
stream:pref_late: 2189
stream:misses: 96
stream:misses_by_poll: 0

CS: 
CS:times selected: 6686425
CS:pref_filled: 5037
CS:pref_useful: 5037
CS:pref_late: 26
CS:misses: 55787
CS:misses_by_poll: 27

CPLX: 
CPLX:times selected: 218850
CPLX:pref_filled: 15005
CPLX:pref_useful: 10191
CPLX:pref_late: 6
CPLX:misses: 563
CPLX:misses_by_poll: 10

NL_L1: 
NL:times selected: 1960
NL:pref_filled: 2
NL:pref_useful: 2
NL:pref_late: 0
NL:misses: 2
NL:misses_by_poll: 0

total selections: 13812673
total_filled: 929639
total_useful: 925567
total_late: 2520
total_polluted: 37
total_misses_after_warmup: 52534
conflicts: 8
Degree Incremented Times: 141183
Degree Decremented Times: 0

L1 IP Table Write Accesses: 16839417
L1 IP Table Read Accesses: 16839409
L1 RST Write Accesses: 5776450
L1 RST Read Accesses: 11552900
L1 CSPT Write Accesses: 5776450
L1 CSPT Read Accesses: 6279193
L1 RR Filter Tag Write Accesses: 32091995
L1 RR Filter Tag Read Accesses: 1487568346
L1 IP Table Tag Write Accesses: 16840283
L1 IP Table Tag Read Accesses: 16840283
L1 RST Tag Write Accesses: 0
L1 RST Tag Read Accesses: 51989735
L1 RR Filter Write Accesses: 0
L1 RR Filter Read Accesses: 49398793
test: 136685
L2 IP Table Read Accesses: 1771094
L2 IP Table Write Accesses: 1723464
L2 IP Table Tag Read Accesses: 885547
L2 IP Table Tag Write Accesses: 885547

DRAM Statistics
 CHANNEL 0
 RQ ROW_BUFFER_HIT:     671853  ROW_BUFFER_MISS:     280155
 DBUS_CONGESTED:        215
 WQ ROW_BUFFER_HIT:       3943  ROW_BUFFER_MISS:      20447  FULL:          0

 AVG_CONGESTED_CYCLE: 4
 All warmup complete: 2
Channel 0 Bank busy for read cycles: 0
Channel 0 Bank busy for write cycles: 0
Channel 0
Rank 0
0banks busy for read cycles: 23761784
0banks busy for write cycles: 6562
1banks busy for read cycles: 9015097
1banks busy for write cycles: 422129
2banks busy for read cycles: 5589743
2banks busy for write cycles: 282554
3banks busy for read cycles: 4334124
3banks busy for write cycles: 329381
4banks busy for read cycles: 2801622
4banks busy for write cycles: 135615
5banks busy for read cycles: 1860708
5banks busy for write cycles: 97021
6banks busy for read cycles: 1230421
6banks busy for write cycles: 57809
7banks busy for read cycles: 1237305
7banks busy for write cycles: 78370
8banks busy for read cycles: 734083
8banks busy for write cycles: 103463

CPU 0 Branch Prediction Accuracy: 81.2317% MPKI: 4.6848 Average ROB Occupancy at Mispredict: 36.1665
Branch types
NOT_BRANCH: 48751584 97.5032%
BRANCH_DIRECT_JUMP: 0 0%
BRANCH_INDIRECT: 0 0%
BRANCH_CONDITIONAL: 1248062 2.49612%
BRANCH_DIRECT_CALL: 0 0%
BRANCH_INDIRECT_CALL: 0 0%
BRANCH_RETURN: 0 0%
BRANCH_OTHER: 0 0%

@sumon_overall_L1D    925567      2031      4069    929639  34847134  49499824
@Sumon_Early_by_class_L1D    913076      3815      8676         0
@Sumon_Late_by_class_L1D      1718        14         0         0

@Sumon_Early_by_cycle_L1D     11642      6175     18242     22507     38501    529640    179494     19720     99613        25         8         0
@Sumon_Late_by_cycle_L1D      1044       938        47         2         0         0         0         0         0         0         0         0
@Sumon_Early_stream_L1D     11576      6129     18025     22127     37877    527104    179336     18946     91956         0         0         0
@Sumon_Early_CS_L1D        50        30       166       305       505      2390       116       253         0         0         0         0
@Sumon_Early_CPLX_L1D        16        16        51        75       119       146        42       521      7657        25         8         0
@Sumon_Late_stream_L1D       737       932        47         2         0         0         0         0         0         0         0         0
@Sumon_Late_CS_L1D         8         6         0         0         0         0         0         0         0         0         0         0
@Sumon_Late_CPLX_L1D         0         0         0         0         0         0         0         0         0         0         0         0
@sumon_overall_L2C     26176       691    880595    906563   4529290   4909541
@Sumon_Early_by_class_L2C     26015       158         3         0
@Sumon_Late_by_class_L2C       473         1         0         0

@Sumon_Early_by_cycle_L2C        80        61        80        72       317      9565     15704        65        88       134         0        10
@Sumon_Late_by_cycle_L2C       305       333        52         1         0         0         0         0         0         0         0         0
@Sumon_Early_stream_L2C        77        61        78        69       281      9454     15703        65        84       134         0         9
@Sumon_Early_CS_L2C         3         0         2         3        36       111         1         0         1         0         0         1
@Sumon_Early_CPLX_L2C         0         0         0         0         0         0         0         0         3         0         0         0
@Sumon_Late_stream_L2C       142       278        52         1         0         0         0         0         0         0         0         0
@Sumon_Late_CS_L2C         0         1         0         0         0         0         0         0         0         0         0         0
@Sumon_Late_CPLX_L2C         0         0         0         0         0         0         0         0         0         0         0         0
DRAM PAGES: 1048576
Allocated PAGES: 17250
