
*** ChampSim Multicore Out-of-Order Simulator ***

Warmup Instructions: 10000000
Simulation Instructions: 50000000
Number of CPUs: 1
LLC sets: 2048
LLC ways: 16
Off-chip DRAM Size: 4096 MB Channels: 1 Width: 64-bit Data Rate: 6400 MT/s
CPU 0 runs traces/SPEC2017/619.lbm_s-4268B.champsimtrace.xz
.xz
CPU 0 Bimodal branch predictor
BTB has LRU replacement policy
ITLB has LRU replacement policy
DTLB has LRU replacement policy
STLB has LRU replacement policy
L1I has LRU replacement policy
IP Table Entries: 256
L1D has LRU replacement policy
IP_Table L2 entries: 256
Initialize SRRIP state for L2C
LLC has LRU replacement policy
Heartbeat CPU 0 instructions: 10000000 cycles: 2905165 heartbeat IPC: 3.44215 cumulative IPC: 3.44215 (Simulation time: 0 hr 20 min 35 sec) 

Warmup complete CPU 0 instructions: 10000004 cycles: 2905166 (Simulation time: 0 hr 20 min 35 sec) 

Heartbeat CPU 0 instructions: 20000001 cycles: 22089258 heartbeat IPC: 0.521265 cumulative IPC: 0.521265 (Simulation time: 1 hr 7 min 44 sec) 
Heartbeat CPU 0 instructions: 30000003 cycles: 41193506 heartbeat IPC: 0.523444 cumulative IPC: 0.522352 (Simulation time: 1 hr 52 min 22 sec) 
Heartbeat CPU 0 instructions: 40000002 cycles: 60403843 heartbeat IPC: 0.520553 cumulative IPC: 0.521751 (Simulation time: 2 hr 14 min 26 sec) 
Heartbeat CPU 0 instructions: 50000001 cycles: 79717985 heartbeat IPC: 0.517755 cumulative IPC: 0.520746 (Simulation time: 2 hr 25 min 10 sec) 
Heartbeat CPU 0 instructions: 60000000 cycles: 99411671 heartbeat IPC: 0.507777 cumulative IPC: 0.5181 (Simulation time: 2 hr 30 min 34 sec) 
Finished CPU 0 instructions: 50000000 cycles: 96506506 cumulative IPC: 0.5181 (Simulation time: 2 hr 30 min 34 sec) 

ChampSim completed all CPUs

Region of Interest Statistics

CPU 0 cumulative IPC: 0.5181 instructions: 50000000 cycles: 96506506
ITLB TOTAL     ACCESS:    6746268  HIT:    6746268  MISS:          0  HIT %:        100  MISS %:          0   MPKI: 0
ITLB LOAD TRANSLATION ACCESS:    6746268  HIT:    6746268  MISS:          0  HIT %:        100  MISS %:          0   MPKI: 0
ITLB PREFETCH  REQUESTED:          0  ISSUED:          0  USEFUL:          0  USELESS:          0
ITLB USEFUL LOAD PREFETCHES:          0 PREFETCH ISSUED TO LOWER LEVEL:          0  ACCURACY: -nan
ITLB TIMELY PREFETCHES:          0 LATE PREFETCHES: 0 DROPPED PREFETCHES: 0
ITLB PREFETCHES SAME FILL-ORIGIN LEVEL: 0 DIFFERENT FILL-ORIGIN LEVEL: 0
ITLB AVERAGE MISS LATENCY: -nan cycles
ITLB RQ	ACCESS:    8695332	FORWARD:          0	MERGED:    1949064	TO_CACHE:    6746268

DTLB TOTAL     ACCESS:    9063167  HIT:    8995131  MISS:      68036  HIT %:    99.2493  MISS %:   0.750687   MPKI: 1.36072
DTLB LOAD TRANSLATION ACCESS:    9063167  HIT:    8995131  MISS:      68036  HIT %:    99.2493  MISS %:   0.750687   MPKI: 1.36072
DTLB PREFETCH  REQUESTED:          0  ISSUED:          0  USEFUL:          0  USELESS:          0
DTLB USEFUL LOAD PREFETCHES:          0 PREFETCH ISSUED TO LOWER LEVEL:          0  ACCURACY: -nan
DTLB TIMELY PREFETCHES:          0 LATE PREFETCHES: 0 DROPPED PREFETCHES: 0
DTLB PREFETCHES SAME FILL-ORIGIN LEVEL: 0 DIFFERENT FILL-ORIGIN LEVEL: 0
DTLB AVERAGE MISS LATENCY: 113.053 cycles
DTLB RQ	ACCESS:   12609233	FORWARD:          0	MERGED:    3520199	TO_CACHE:    9089034

STLB TOTAL     ACCESS:     427552  HIT:     390637  MISS:      36915  HIT %:     91.366  MISS %:    8.63404   MPKI: 0.7383
STLB LOAD TRANSLATION ACCESS:      68036  HIT:      31121  MISS:      36915  HIT %:     45.742  MISS %:     54.258   MPKI: 0.7383
STLB TRANSLATION FROM L1D PREFETCHER ACCESS:     359516  HIT:     359516  MISS:          0  HIT %:        100  MISS %:          0   MPKI: 0
STLB PREFETCH  REQUESTED:          0  ISSUED:          0  USEFUL:          0  USELESS:          0
STLB USEFUL LOAD PREFETCHES:          0 PREFETCH ISSUED TO LOWER LEVEL:          0  ACCURACY: -nan
STLB TIMELY PREFETCHES:          0 LATE PREFETCHES: 0 DROPPED PREFETCHES: 0
STLB PREFETCHES SAME FILL-ORIGIN LEVEL: 0 DIFFERENT FILL-ORIGIN LEVEL: 0
STLB AVERAGE MISS LATENCY: 188.973 cycles
STLB RQ	ACCESS:     674675	FORWARD:          0	MERGED:     247123	TO_CACHE:     427552

STLB Hit, L1D data hit: 0
STLB Hit, L2C data hit: 0
STLB Hit, LLC data hit: 0
STLB Hit, LLC data miss: 0
STLB STLB hints to L2: 0
L1D TOTAL     ACCESS:   12986688  HIT:    9089376  MISS:    3897312  HIT %:    69.9899  MISS %:    30.0101   MPKI: 77.9462
L1D LOAD      ACCESS:    4378485  HIT:    4179580  MISS:     198905  HIT %:    95.4572  MISS %:    4.54278   MPKI: 3.9781
L1D RFO       ACCESS:    8110761  HIT:    4804047  MISS:    3306714  HIT %:    59.2305  MISS %:    40.7695   MPKI: 66.1343
L1D PREFETCH  ACCESS:     497442  HIT:     105749  MISS:     391693  HIT %:    21.2586  MISS %:    78.7414   MPKI: 7.83386
L1D PREFETCH  REQUESTED:    1237085  ISSUED:    1213281  USEFUL:     391689  USELESS:          0
L1D USEFUL LOAD PREFETCHES:     391689 PREFETCH ISSUED TO LOWER LEVEL:     429281  ACCURACY: 91.243
L1D TIMELY PREFETCHES:     391689 LATE PREFETCHES: 37323 DROPPED PREFETCHES: 0
L1D PREFETCHES SAME FILL-ORIGIN LEVEL: 429281 DIFFERENT FILL-ORIGIN LEVEL: 0
L1D AVERAGE MISS LATENCY: 496700 cycles
L1D RQ	ACCESS:   12494761	FORWARD:          0	MERGED:    5869761	TO_CACHE:    4434616
L1D WQ	ACCESS:    9189920	FORWARD:    2190384	MERGED:    1015303	TO_CACHE:    8174617
L1D PQ	ACCESS:     606642	FORWARD:          0	MERGED:          3	TO_CACHE:     606639

L1D UNIQUE REGIONS ACCESSED: 0
L1D REGIONS CONFLICTS: 0
L1D Cross Page Prefetch Requests: 0
L1D Same Page Prefetch Requests: 733595
L1D ROI Sum of L1D PQ occupancy: 526529023
L1D PREFETCHES PUSHED FROM L2C: 0
L1I TOTAL     ACCESS:    8695333  HIT:    8695333  MISS:          0  HIT %:        100  MISS %:          0   MPKI: 0
L1I LOAD      ACCESS:    8695333  HIT:    8695333  MISS:          0  HIT %:        100  MISS %:          0   MPKI: 0
L1I PREFETCH  REQUESTED:          0  ISSUED:          0  USEFUL:          0  USELESS:          0
L1I USEFUL LOAD PREFETCHES:          0 PREFETCH ISSUED TO LOWER LEVEL:          0  ACCURACY: -nan
L1I TIMELY PREFETCHES:          0 LATE PREFETCHES: 0 DROPPED PREFETCHES: 0
L1I PREFETCHES SAME FILL-ORIGIN LEVEL: 0 DIFFERENT FILL-ORIGIN LEVEL: 0
L1I AVERAGE MISS LATENCY: -nan cycles
L1I RQ	ACCESS:   12526681	FORWARD:          0	MERGED:    3831349	TO_CACHE:    8695332

BTB TOTAL     ACCESS:     892946  HIT:     892940  MISS:          6  HIT %:    99.9993  MISS %: 0.000671933   MPKI: 0.00012
BTB BRANCH_DIRECT_JUMP	ACCESS:     143974  HIT:     143973  MISS:          1
BTB BRANCH_INDIRECT	ACCESS:          0  HIT:          0  MISS:          0
BTB BRANCH_CONDITIONAL	ACCESS:     748972  HIT:     748967  MISS:          5
BTB BRANCH_DIRECT_CALL	ACCESS:          0  HIT:          0  MISS:          0
BTB BRANCH_INDIRECT_CALL	ACCESS:          0  HIT:          0  MISS:          0
BTB BRANCH_RETURN	ACCESS:          0  HIT:          0  MISS:          0
BTB BRANCH_OTHER ACCESS:          0  HIT:          0  MISS:          0

L2C TOTAL     ACCESS:    7866732  HIT:    5246346  MISS:    2620386  HIT %:    66.6903  MISS %:    33.3097   MPKI: 52.4077
L2C LOAD      ACCESS:     161582  HIT:      84523  MISS:      77059  HIT %:    52.3097  MISS %:    47.6903   MPKI: 1.54118
L2C DATA LOAD MPKI: 1.54118
L2C INSTRUCTION LOAD MPKI: 0
L2C RFO       ACCESS:    3306712  HIT:    1486917  MISS:    1819795  HIT %:    44.9666  MISS %:    55.0334   MPKI: 36.3959
L2C PREFETCH  ACCESS:    1054797  HIT:     540997  MISS:     513800  HIT %:    51.2892  MISS %:    48.7108   MPKI: 10.276
L2C DATA PREFETCH MPKI: 10.276
L2C INSTRUCTION PREFETCH MPKI: 0
L2C WRITEBACK ACCESS:    3306724  HIT:    3101847  MISS:     204877  HIT %:    93.8042  MISS %:    6.19577   MPKI: 4.09754
L2C LOAD TRANSLATION ACCESS:      36917  HIT:      32062  MISS:       4855  HIT %:    86.8489  MISS %:    13.1511   MPKI: 0.0971
L2C PREFETCH  REQUESTED:     960325  ISSUED:     960282  USEFUL:      84477  USELESS:     429321
L2C USEFUL LOAD PREFETCHES:      84477 PREFETCH ISSUED TO LOWER LEVEL:     527112  ACCURACY: 16.0264
L2C TIMELY PREFETCHES:      84477 LATE PREFETCHES: 13311 DROPPED PREFETCHES: 0
L2C PREFETCHES SAME FILL-ORIGIN LEVEL: 347319 DIFFERENT FILL-ORIGIN LEVEL: 0
L2C AVERAGE MISS LATENCY: 583.158 cycles
L2C RQ	ACCESS:    3505228	FORWARD:          0	MERGED:          0	TO_CACHE:    3505226
L2C WQ	ACCESS:    3306724	FORWARD:          2	MERGED:          0	TO_CACHE:    3306724
L2C PQ	ACCESS:    1389299	FORWARD:          0	MERGED:     178315	TO_CACHE:    1210984

L2C Instructions Evicting Data 0
L2C Translations Evicting Data 4831
L2C Data Evicting Data 2406151
L2C Instructions Evicting Instructions 0
L2C Translations Evicting Instructions 0
L2C Data Evicting Instructions 0
L2C Instructions Evicting Translations 0
L2C Translations Evicting Translations 24
L2C Data Evicting Translations 4503
L2C Dense regions hint from L2: 0
PSCL5 TOTAL     ACCESS:      36915  HIT:      36915  MISS:          0  HIT %:        100  MISS %:          0   MPKI: 0
PSCL5 LOAD TRANSLATION ACCESS:      36915  HIT:      36915  MISS:          0  HIT %:        100  MISS %:          0   MPKI: 0
PSCL5 PREFETCH  REQUESTED:          0  ISSUED:          0  USEFUL:          0  USELESS:          0
PSCL5 USEFUL LOAD PREFETCHES:          0 PREFETCH ISSUED TO LOWER LEVEL:          0  ACCURACY: -nan
PSCL5 TIMELY PREFETCHES:          0 LATE PREFETCHES: 0 DROPPED PREFETCHES: 0
PSCL5 PREFETCHES SAME FILL-ORIGIN LEVEL: 0 DIFFERENT FILL-ORIGIN LEVEL: 0

PSCL4 TOTAL     ACCESS:      36915  HIT:      36915  MISS:          0  HIT %:        100  MISS %:          0   MPKI: 0
PSCL4 LOAD TRANSLATION ACCESS:      36915  HIT:      36915  MISS:          0  HIT %:        100  MISS %:          0   MPKI: 0
PSCL4 PREFETCH  REQUESTED:          0  ISSUED:          0  USEFUL:          0  USELESS:          0
PSCL4 USEFUL LOAD PREFETCHES:          0 PREFETCH ISSUED TO LOWER LEVEL:          0  ACCURACY: -nan
PSCL4 TIMELY PREFETCHES:          0 LATE PREFETCHES: 0 DROPPED PREFETCHES: 0
PSCL4 PREFETCHES SAME FILL-ORIGIN LEVEL: 0 DIFFERENT FILL-ORIGIN LEVEL: 0

PSCL3 TOTAL     ACCESS:      36915  HIT:      36915  MISS:          0  HIT %:        100  MISS %:          0   MPKI: 0
PSCL3 LOAD TRANSLATION ACCESS:      36915  HIT:      36915  MISS:          0  HIT %:        100  MISS %:          0   MPKI: 0
PSCL3 PREFETCH  REQUESTED:          0  ISSUED:          0  USEFUL:          0  USELESS:          0
PSCL3 USEFUL LOAD PREFETCHES:          0 PREFETCH ISSUED TO LOWER LEVEL:          0  ACCURACY: -nan
PSCL3 TIMELY PREFETCHES:          0 LATE PREFETCHES: 0 DROPPED PREFETCHES: 0
PSCL3 PREFETCHES SAME FILL-ORIGIN LEVEL: 0 DIFFERENT FILL-ORIGIN LEVEL: 0

PSCL2 TOTAL     ACCESS:      36915  HIT:      36877  MISS:         38  HIT %:    99.8971  MISS %:   0.102939   MPKI: 0.00076
PSCL2 LOAD TRANSLATION ACCESS:      36915  HIT:      36877  MISS:         38  HIT %:    99.8971  MISS %:   0.102939   MPKI: 0.00076
PSCL2 PREFETCH  REQUESTED:          0  ISSUED:          0  USEFUL:          0  USELESS:          0
PSCL2 USEFUL LOAD PREFETCHES:          0 PREFETCH ISSUED TO LOWER LEVEL:          0  ACCURACY: -nan
PSCL2 TIMELY PREFETCHES:          0 LATE PREFETCHES: 0 DROPPED PREFETCHES: 0
PSCL2 PREFETCHES SAME FILL-ORIGIN LEVEL: 0 DIFFERENT FILL-ORIGIN LEVEL: 0

LLC TOTAL     ACCESS:    4242104  HIT:    1875524  MISS:    2366580  HIT %:    44.2121  MISS %:    55.7879   MPKI: 47.3316
LLC LOAD      ACCESS:      63748  HIT:         83  MISS:      63665  HIT %:     0.1302  MISS %:    99.8698   MPKI: 1.2733
LLC RFO       ACCESS:    1819740  HIT:      48415  MISS:    1771325  HIT %:    2.66054  MISS %:    97.3395   MPKI: 35.4265
LLC PREFETCH  ACCESS:     527111  HIT:        278  MISS:     526833  HIT %:  0.0527403  MISS %:    99.9473   MPKI: 10.5367
LLC WRITEBACK ACCESS:    1826650  HIT:    1826556  MISS:         94  HIT %:    99.9949  MISS %: 0.00514603   MPKI: 0.00188
LLC LOAD TRANSLATION ACCESS:       4855  HIT:        192  MISS:       4663  HIT %:    3.95469  MISS %:    96.0453   MPKI: 0.09326
LLC PREFETCH  REQUESTED:          0  ISSUED:          0  USEFUL:         29  USELESS:     523416
LLC USEFUL LOAD PREFETCHES:         29 PREFETCH ISSUED TO LOWER LEVEL:     526834  ACCURACY: 0.00550458
LLC TIMELY PREFETCHES:         29 LATE PREFETCHES: 0 DROPPED PREFETCHES: 0
LLC PREFETCHES SAME FILL-ORIGIN LEVEL: 0 DIFFERENT FILL-ORIGIN LEVEL: 0
LLC AVERAGE MISS LATENCY: 617.142 cycles
LLC RQ	ACCESS:    1888413	FORWARD:          0	MERGED:          0	TO_CACHE:    1888353
LLC WQ	ACCESS:    1826650	FORWARD:         60	MERGED:          0	TO_CACHE:    1826650
LLC PQ	ACCESS:     527112	FORWARD:          0	MERGED:          0	TO_CACHE:     527112

LLC Dense regions hint to LLC: 0

RAW hits: 527343
Loads Generated: 13022106
Loads sent to L1D: 12494761
Stores Generated: 9189899
Stores sent to L1D: 9189920
Major fault: 0 Minor fault: 25334
Allocated PAGES: 25334

stream: 
stream:times selected: 2235897
stream:pref_filled: 82304
stream:pref_useful: 82304
stream:pref_late: 13523
stream:misses: 33487
stream:misses_by_poll: 0

CS: 
CS:times selected: 390190
CS:pref_filled: 219382
CS:pref_useful: 219376
CS:pref_late: 9151
CS:misses: 66785
CS:misses_by_poll: 1425

CPLX: 
CPLX:times selected: 1843310
CPLX:pref_filled: 201389
CPLX:pref_useful: 201383
CPLX:pref_late: 15769
CPLX:misses: 152513
CPLX:misses_by_poll: 1139

NL_L1: 
NL:times selected: 1034
NL:pref_filled: 38
NL:pref_useful: 38
NL:pref_late: 33
NL:misses: 146
NL:misses_by_poll: 0

total selections: 4470431
total_filled: 391693
total_useful: 391689
total_late: 39746
total_polluted: 2564
total_misses_after_warmup: 255036
conflicts: 74508
Degree Incremented Times: 73682
Degree Decremented Times: 0

L1 IP Table Write Accesses: 3966216
L1 IP Table Read Accesses: 3891708
L1 RST Write Accesses: 1841340
L1 RST Read Accesses: 3682680
L1 CSPT Write Accesses: 1841340
L1 CSPT Read Accesses: 5867075
L1 RR Filter Tag Write Accesses: 630446
L1 RR Filter Tag Read Accesses: 302287298
L1 IP Table Tag Write Accesses: 4434616
L1 IP Table Tag Read Accesses: 4434616
L1 RST Tag Write Accesses: 0
L1 RST Tag Read Accesses: 16537423
L1 RR Filter Write Accesses: 0
L1 RR Filter Read Accesses: 13587034
test: 349163
L2 IP Table Read Accesses: 1037736
L2 IP Table Write Accesses: 876258
L2 IP Table Tag Read Accesses: 518998
L2 IP Table Tag Write Accesses: 518998

DRAM Statistics
 CHANNEL 0
 RQ ROW_BUFFER_HIT:     238784  ROW_BUFFER_MISS:    2127702
 DBUS_CONGESTED:          0
 WQ ROW_BUFFER_HIT:     381238  ROW_BUFFER_MISS:    1394711  FULL:          0

 AVG_CONGESTED_CYCLE: -
 All warmup complete: 2
Channel 0 Bank busy for read cycles: 0
Channel 0 Bank busy for write cycles: 0
Channel 0
Rank 0
0banks busy for read cycles: 8258
0banks busy for write cycles: 0
1banks busy for read cycles: 595104
1banks busy for write cycles: 172743
2banks busy for read cycles: 936128
2banks busy for write cycles: 172740
3banks busy for read cycles: 1665385
3banks busy for write cycles: 172735
4banks busy for read cycles: 2651018
4banks busy for write cycles: 172729
5banks busy for read cycles: 7177957
5banks busy for write cycles: 172727
6banks busy for read cycles: 11073382
6banks busy for write cycles: 172885
7banks busy for read cycles: 15895453
7banks busy for write cycles: 1952006
8banks busy for read cycles: 18997610
8banks busy for write cycles: 34517647

CPU 0 Branch Prediction Accuracy: 94.9708% MPKI: 0.89816 Average ROB Occupancy at Mispredict: 161.694
Branch types
NOT_BRANCH: 49106717 98.2134%
BRANCH_DIRECT_JUMP: 143974 0.287948%
BRANCH_INDIRECT: 0 0%
BRANCH_CONDITIONAL: 748973 1.49795%
BRANCH_DIRECT_CALL: 0 0%
BRANCH_INDIRECT_CALL: 0 0%
BRANCH_RETURN: 0 0%
BRANCH_OTHER: 0 0%

@sumon_overall_L1D    391689     37323         0    391693   1213281   1237085
@Sumon_Early_by_class_L1D     59352    185127    147175        27
@Sumon_Late_by_class_L1D     11645      9065     15510        27

@Sumon_Early_by_cycle_L1D     27568     26834     29590     55930     34106    163182     47778      6683        18         0         0         0
@Sumon_Late_by_cycle_L1D      7427      6038     13879      5502      2348      2107        22         0         0         0         0         0
@Sumon_Early_stream_L1D      7734      8316      7502     14228      7052     14473        47         0         0         0         0         0
@Sumon_Early_CS_L1D     11025     10129     11812     24286     13991     92735     21110        39         0         0         0         0
@Sumon_Early_CPLX_L1D      8806      8379     10273     17412     13060     55964     26619      6644        18         0         0         0
@Sumon_Late_stream_L1D      1980      2090      4318      1752       791       707         7         0         0         0         0         0
@Sumon_Late_CS_L1D      1862      1328      2967      1312       753       833        10         0         0         0         0         0
@Sumon_Late_CPLX_L1D      2508      2614      6585      2434       800       564         5         0         0         0         0         0
@sumon_overall_L2C     84477     13311    429321    513800    960282    960325
@Sumon_Early_by_class_L2C     28977     55483         0         0
@Sumon_Late_by_class_L2C     10052      3192         0         0

@Sumon_Early_by_cycle_L2C      7173      3815      7970     10982      5507     37188     11821        21         0         0         0         0
@Sumon_Late_by_cycle_L2C      1856      2844      4381      2358       947       917         8         0         0         0         0         0
@Sumon_Early_stream_L2C      5793      3076      5745      7036      2599      4701        27         0         0         0         0         0
@Sumon_Early_CS_L2C      1379       739      2220      3943      2908     32482     11791        21         0         0         0         0
@Sumon_Early_CPLX_L2C         0         0         0         0         0         0         0         0         0         0         0         0
@Sumon_Late_stream_L2C      1369      2250      3497      1716       619       594         7         0         0         0         0         0
@Sumon_Late_CS_L2C       420       594       884       642       328       323         1         0         0         0         0         0
@Sumon_Late_CPLX_L2C         0         0         0         0         0         0         0         0         0         0         0         0
DRAM PAGES: 1048576
Allocated PAGES: 25334
