
*** ChampSim Multicore Out-of-Order Simulator ***

Warmup Instructions: 10000000
Simulation Instructions: 50000000
Number of CPUs: 1
LLC sets: 2048
LLC ways: 16
Off-chip DRAM Size: 4096 MB Channels: 1 Width: 64-bit Data Rate: 6400 MT/s
CPU 0 runs traces/SPEC2017/654.roms_s-1613B.champsimtrace.xz
.xz
CPU 0 Bimodal branch predictor
BTB has LRU replacement policy
ITLB has LRU replacement policy
DTLB has LRU replacement policy
STLB has LRU replacement policy
L1I has LRU replacement policy
IP Table Entries: 256
L1D has LRU replacement policy
IP_Table L2 entries: 256
Initialize SRRIP state for L2C
LLC has LRU replacement policy
Heartbeat CPU 0 instructions: 10000001 cycles: 2910541 heartbeat IPC: 3.43579 cumulative IPC: 3.43579 (Simulation time: 0 hr 20 min 1 sec) 

Warmup complete CPU 0 instructions: 10000001 cycles: 2910541 (Simulation time: 0 hr 20 min 1 sec) 

Heartbeat CPU 0 instructions: 20000003 cycles: 19552631 heartbeat IPC: 0.600886 cumulative IPC: 0.600886 (Simulation time: 0 hr 37 min 1 sec) 
Heartbeat CPU 0 instructions: 30000003 cycles: 36193699 heartbeat IPC: 0.600923 cumulative IPC: 0.600905 (Simulation time: 0 hr 53 min 58 sec) 
Heartbeat CPU 0 instructions: 40000000 cycles: 52838493 heartbeat IPC: 0.600788 cumulative IPC: 0.600866 (Simulation time: 1 hr 11 min 4 sec) 
Heartbeat CPU 0 instructions: 50000001 cycles: 73777885 heartbeat IPC: 0.477569 cumulative IPC: 0.564435 (Simulation time: 1 hr 32 min 39 sec) 
Heartbeat CPU 0 instructions: 60000001 cycles: 90452652 heartbeat IPC: 0.599709 cumulative IPC: 0.571154 (Simulation time: 1 hr 48 min 36 sec) 
Finished CPU 0 instructions: 50000000 cycles: 87542111 cumulative IPC: 0.571154 (Simulation time: 1 hr 48 min 36 sec) 

ChampSim completed all CPUs

Region of Interest Statistics

CPU 0 cumulative IPC: 0.571154 instructions: 50000000 cycles: 87542111
ITLB TOTAL     ACCESS:    7738590  HIT:    7738575  MISS:         15  HIT %:    99.9998  MISS %: 0.000193834   MPKI: 0.0003
ITLB LOAD TRANSLATION ACCESS:    7738590  HIT:    7738575  MISS:         15  HIT %:    99.9998  MISS %: 0.000193834   MPKI: 0.0003
ITLB PREFETCH  REQUESTED:          0  ISSUED:          0  USEFUL:          0  USELESS:          0
ITLB USEFUL LOAD PREFETCHES:          0 PREFETCH ISSUED TO LOWER LEVEL:          0  ACCURACY: -nan
ITLB TIMELY PREFETCHES:          0 LATE PREFETCHES: 0 DROPPED PREFETCHES: 0
ITLB PREFETCHES SAME FILL-ORIGIN LEVEL: 0 DIFFERENT FILL-ORIGIN LEVEL: 0
ITLB AVERAGE MISS LATENCY: 281.933 cycles
ITLB RQ	ACCESS:    9996738	FORWARD:          0	MERGED:    2258148	TO_CACHE:    7738590

DTLB TOTAL     ACCESS:   10728451  HIT:   10723614  MISS:       4837  HIT %:    99.9549  MISS %:  0.0450857   MPKI: 0.09674
DTLB LOAD TRANSLATION ACCESS:   10728451  HIT:   10723614  MISS:       4837  HIT %:    99.9549  MISS %:  0.0450857   MPKI: 0.09674
DTLB PREFETCH  REQUESTED:          0  ISSUED:          0  USEFUL:          0  USELESS:          0
DTLB USEFUL LOAD PREFETCHES:          0 PREFETCH ISSUED TO LOWER LEVEL:          0  ACCURACY: -nan
DTLB TIMELY PREFETCHES:          0 LATE PREFETCHES: 0 DROPPED PREFETCHES: 0
DTLB PREFETCHES SAME FILL-ORIGIN LEVEL: 0 DIFFERENT FILL-ORIGIN LEVEL: 0
DTLB AVERAGE MISS LATENCY: 155.903 cycles
DTLB RQ	ACCESS:   12757102	FORWARD:          0	MERGED:    2023768	TO_CACHE:   10733334

STLB TOTAL     ACCESS:     300218  HIT:     295658  MISS:       4560  HIT %:    98.4811  MISS %:     1.5189   MPKI: 0.0912
STLB LOAD TRANSLATION ACCESS:       4852  HIT:        293  MISS:       4559  HIT %:    6.03875  MISS %:    93.9613   MPKI: 0.09118
STLB TRANSLATION FROM L1D PREFETCHER ACCESS:     295366  HIT:     295365  MISS:          1  HIT %:    99.9997  MISS %: 0.000338563   MPKI: 2e-05
STLB PREFETCH  REQUESTED:          0  ISSUED:          0  USEFUL:          1  USELESS:          0
STLB USEFUL LOAD PREFETCHES:          1 PREFETCH ISSUED TO LOWER LEVEL:          0  ACCURACY: inf
STLB TIMELY PREFETCHES:          1 LATE PREFETCHES: 0 DROPPED PREFETCHES: 0
STLB PREFETCHES SAME FILL-ORIGIN LEVEL: 0 DIFFERENT FILL-ORIGIN LEVEL: 0
STLB AVERAGE MISS LATENCY: 156.708 cycles
STLB RQ	ACCESS:    1306056	FORWARD:          0	MERGED:    1005837	TO_CACHE:     300219

STLB Hit, L1D data hit: 0
STLB Hit, L2C data hit: 0
STLB Hit, LLC data hit: 0
STLB Hit, LLC data miss: 0
STLB STLB hints to L2: 0
L1D TOTAL     ACCESS:   13591090  HIT:   13360767  MISS:     230323  HIT %:    98.3053  MISS %:    1.69466   MPKI: 4.60646
L1D LOAD      ACCESS:    7529336  HIT:    7521426  MISS:       7910  HIT %:    99.8949  MISS %:   0.105056   MPKI: 0.1582
L1D RFO       ACCESS:    4764707  HIT:    4676227  MISS:      88480  HIT %:     98.143  MISS %:    1.85699   MPKI: 1.7696
L1D PREFETCH  ACCESS:    1297047  HIT:    1163114  MISS:     133933  HIT %:     89.674  MISS %:     10.326   MPKI: 2.67866
L1D PREFETCH  REQUESTED:    2602948  ISSUED:    2602412  USEFUL:     125098  USELESS:       8855
L1D USEFUL LOAD PREFETCHES:     125098 PREFETCH ISSUED TO LOWER LEVEL:     136543  ACCURACY: 91.618
L1D TIMELY PREFETCHES:     125098 LATE PREFETCHES: 2608 DROPPED PREFETCHES: 0
L1D PREFETCHES SAME FILL-ORIGIN LEVEL: 136543 DIFFERENT FILL-ORIGIN LEVEL: 0
L1D AVERAGE MISS LATENCY: 698346 cycles
L1D RQ	ACCESS:   10183692	FORWARD:          0	MERGED:    2635917	TO_CACHE:    7541578
L1D WQ	ACCESS:    5563751	FORWARD:       6201	MERGED:     348227	TO_CACHE:    5215524
L1D PQ	ACCESS:    1301208	FORWARD:          0	MERGED:          0	TO_CACHE:    1301204

L1D UNIQUE REGIONS ACCESSED: 0
L1D REGIONS CONFLICTS: 0
L1D Cross Page Prefetch Requests: 0
L1D Same Page Prefetch Requests: 1586187
L1D ROI Sum of L1D PQ occupancy: 18984086
L1D PREFETCHES PUSHED FROM L2C: 0
L1I TOTAL     ACCESS:    9996697  HIT:    9996520  MISS:        177  HIT %:    99.9982  MISS %: 0.00177058   MPKI: 0.00354
L1I LOAD      ACCESS:    9996697  HIT:    9996520  MISS:        177  HIT %:    99.9982  MISS %: 0.00177058   MPKI: 0.00354
L1I PREFETCH  REQUESTED:          0  ISSUED:          0  USEFUL:          0  USELESS:          0
L1I USEFUL LOAD PREFETCHES:          0 PREFETCH ISSUED TO LOWER LEVEL:          0  ACCURACY: -nan
L1I TIMELY PREFETCHES:          0 LATE PREFETCHES: 0 DROPPED PREFETCHES: 0
L1I PREFETCHES SAME FILL-ORIGIN LEVEL: 0 DIFFERENT FILL-ORIGIN LEVEL: 0
L1I AVERAGE MISS LATENCY: 179.322 cycles
L1I RQ	ACCESS:   14517390	FORWARD:          0	MERGED:    4520652	TO_CACHE:    9996738

BTB TOTAL     ACCESS:    3115019  HIT:    2767458  MISS:     347561  HIT %:    88.8424  MISS %:    11.1576   MPKI: 6.95122
BTB BRANCH_DIRECT_JUMP	ACCESS:     347719  HIT:     347681  MISS:         38
BTB BRANCH_INDIRECT	ACCESS:         16  HIT:         15  MISS:          1
BTB BRANCH_CONDITIONAL	ACCESS:    1377020  HIT:    1376893  MISS:        127
BTB BRANCH_DIRECT_CALL	ACCESS:     695131  HIT:     695086  MISS:         45
BTB BRANCH_INDIRECT_CALL	ACCESS:          0  HIT:          0  MISS:          0
BTB BRANCH_RETURN	ACCESS:     695133  HIT:     347783  MISS:     347350
BTB BRANCH_OTHER ACCESS:          0  HIT:          0  MISS:          0

L2C TOTAL     ACCESS:     752901  HIT:     512019  MISS:     240882  HIT %:    68.0062  MISS %:    31.9938   MPKI: 4.81764
L2C LOAD      ACCESS:       5479  HIT:        182  MISS:       5297  HIT %:    3.32177  MISS %:    96.6782   MPKI: 0.10594
L2C DATA LOAD MPKI: 0.1024
L2C INSTRUCTION LOAD MPKI: 0.00354
L2C RFO       ACCESS:      88480  HIT:         16  MISS:      88464  HIT %:  0.0180832  MISS %:    99.9819   MPKI: 1.76928
L2C PREFETCH  ACCESS:     565862  HIT:     422244  MISS:     143618  HIT %:    74.6196  MISS %:    25.3804   MPKI: 2.87236
L2C DATA PREFETCH MPKI: 2.87236
L2C INSTRUCTION PREFETCH MPKI: 0
L2C WRITEBACK ACCESS:      88520  HIT:      85926  MISS:       2594  HIT %:    97.0696  MISS %:    2.93041   MPKI: 0.05188
L2C LOAD TRANSLATION ACCESS:       4559  HIT:       3650  MISS:        909  HIT %:    80.0614  MISS %:    19.9386   MPKI: 0.01818
L2C TRANSLATION FROM L1D PREFETCHER ACCESS:          1  HIT:          1  MISS:          0  HIT %:        100  MISS %:          0   MPKI: 0
L2C PREFETCH  REQUESTED:     604844  ISSUED:     604841  USEFUL:        197  USELESS:     142721
L2C USEFUL LOAD PREFETCHES:        197 PREFETCH ISSUED TO LOWER LEVEL:     143736  ACCURACY: 0.137057
L2C TIMELY PREFETCHES:        197 LATE PREFETCHES: 118 DROPPED PREFETCHES: 0
L2C PREFETCHES SAME FILL-ORIGIN LEVEL: 119554 DIFFERENT FILL-ORIGIN LEVEL: 0
L2C AVERAGE MISS LATENCY: 222.618 cycles
L2C RQ	ACCESS:      98519	FORWARD:          0	MERGED:          0	TO_CACHE:      98519
L2C WQ	ACCESS:      88520	FORWARD:          0	MERGED:          0	TO_CACHE:      88520
L2C PQ	ACCESS:     741382	FORWARD:          0	MERGED:      51454	TO_CACHE:     689928

L2C Instructions Evicting Data 177
L2C Translations Evicting Data 904
L2C Data Evicting Data 236034
L2C Instructions Evicting Instructions 0
L2C Translations Evicting Instructions 1
L2C Data Evicting Instructions 175
L2C Instructions Evicting Translations 0
L2C Translations Evicting Translations 3
L2C Data Evicting Translations 908
L2C Dense regions hint from L2: 0
PSCL5 TOTAL     ACCESS:       4560  HIT:       4560  MISS:          0  HIT %:        100  MISS %:          0   MPKI: 0
PSCL5 LOAD TRANSLATION ACCESS:       4559  HIT:       4559  MISS:          0  HIT %:        100  MISS %:          0   MPKI: 0
PSCL5 TRANSLATION FROM L1D PREFETCHER ACCESS:          1  HIT:          1  MISS:          0  HIT %:        100  MISS %:          0   MPKI: 0
PSCL5 PREFETCH  REQUESTED:          0  ISSUED:          0  USEFUL:          0  USELESS:          0
PSCL5 USEFUL LOAD PREFETCHES:          0 PREFETCH ISSUED TO LOWER LEVEL:          0  ACCURACY: -nan
PSCL5 TIMELY PREFETCHES:          0 LATE PREFETCHES: 0 DROPPED PREFETCHES: 0
PSCL5 PREFETCHES SAME FILL-ORIGIN LEVEL: 0 DIFFERENT FILL-ORIGIN LEVEL: 0

PSCL4 TOTAL     ACCESS:       4560  HIT:       4560  MISS:          0  HIT %:        100  MISS %:          0   MPKI: 0
PSCL4 LOAD TRANSLATION ACCESS:       4559  HIT:       4559  MISS:          0  HIT %:        100  MISS %:          0   MPKI: 0
PSCL4 TRANSLATION FROM L1D PREFETCHER ACCESS:          1  HIT:          1  MISS:          0  HIT %:        100  MISS %:          0   MPKI: 0
PSCL4 PREFETCH  REQUESTED:          0  ISSUED:          0  USEFUL:          0  USELESS:          0
PSCL4 USEFUL LOAD PREFETCHES:          0 PREFETCH ISSUED TO LOWER LEVEL:          0  ACCURACY: -nan
PSCL4 TIMELY PREFETCHES:          0 LATE PREFETCHES: 0 DROPPED PREFETCHES: 0
PSCL4 PREFETCHES SAME FILL-ORIGIN LEVEL: 0 DIFFERENT FILL-ORIGIN LEVEL: 0

PSCL3 TOTAL     ACCESS:       4560  HIT:       4558  MISS:          2  HIT %:    99.9561  MISS %:  0.0438596   MPKI: 4e-05
PSCL3 LOAD TRANSLATION ACCESS:       4559  HIT:       4557  MISS:          2  HIT %:    99.9561  MISS %:  0.0438693   MPKI: 4e-05
PSCL3 TRANSLATION FROM L1D PREFETCHER ACCESS:          1  HIT:          1  MISS:          0  HIT %:        100  MISS %:          0   MPKI: 0
PSCL3 PREFETCH  REQUESTED:          0  ISSUED:          0  USEFUL:          0  USELESS:          0
PSCL3 USEFUL LOAD PREFETCHES:          0 PREFETCH ISSUED TO LOWER LEVEL:          0  ACCURACY: -nan
PSCL3 TIMELY PREFETCHES:          0 LATE PREFETCHES: 0 DROPPED PREFETCHES: 0
PSCL3 PREFETCHES SAME FILL-ORIGIN LEVEL: 0 DIFFERENT FILL-ORIGIN LEVEL: 0

PSCL2 TOTAL     ACCESS:       4560  HIT:       4545  MISS:         15  HIT %:    99.6711  MISS %:   0.328947   MPKI: 0.0003
PSCL2 LOAD TRANSLATION ACCESS:       4559  HIT:       4544  MISS:         15  HIT %:     99.671  MISS %:    0.32902   MPKI: 0.0003
PSCL2 TRANSLATION FROM L1D PREFETCHER ACCESS:          1  HIT:          1  MISS:          0  HIT %:        100  MISS %:          0   MPKI: 0
PSCL2 PREFETCH  REQUESTED:          0  ISSUED:          0  USEFUL:          0  USELESS:          0
PSCL2 USEFUL LOAD PREFETCHES:          0 PREFETCH ISSUED TO LOWER LEVEL:          0  ACCURACY: -nan
PSCL2 TIMELY PREFETCHES:          0 LATE PREFETCHES: 0 DROPPED PREFETCHES: 0
PSCL2 PREFETCHES SAME FILL-ORIGIN LEVEL: 0 DIFFERENT FILL-ORIGIN LEVEL: 0

LLC TOTAL     ACCESS:     327393  HIT:      89022  MISS:     238371  HIT %:    27.1912  MISS %:    72.8088   MPKI: 4.76742
LLC LOAD      ACCESS:       5179  HIT:          4  MISS:       5175  HIT %:   0.077235  MISS %:    99.9228   MPKI: 0.1035
LLC RFO       ACCESS:      88464  HIT:          1  MISS:      88463  HIT %:  0.0011304  MISS %:    99.9989   MPKI: 1.76926
LLC PREFETCH  ACCESS:     143736  HIT:         97  MISS:     143639  HIT %:  0.0674848  MISS %:    99.9325   MPKI: 2.87278
LLC WRITEBACK ACCESS:      89105  HIT:      88905  MISS:        200  HIT %:    99.7755  MISS %:   0.224454   MPKI: 0.004
LLC LOAD TRANSLATION ACCESS:        909  HIT:         15  MISS:        894  HIT %:    1.65017  MISS %:    98.3498   MPKI: 0.01788
LLC PREFETCH  REQUESTED:          0  ISSUED:          0  USEFUL:          4  USELESS:     130264
LLC USEFUL LOAD PREFETCHES:          4 PREFETCH ISSUED TO LOWER LEVEL:     143639  ACCURACY: 0.00278476
LLC TIMELY PREFETCHES:          4 LATE PREFETCHES: 0 DROPPED PREFETCHES: 0
LLC PREFETCHES SAME FILL-ORIGIN LEVEL: 0 DIFFERENT FILL-ORIGIN LEVEL: 0
LLC AVERAGE MISS LATENCY: 193.85 cycles
LLC RQ	ACCESS:      94552	FORWARD:          0	MERGED:          0	TO_CACHE:      94552
LLC WQ	ACCESS:      89105	FORWARD:          0	MERGED:          0	TO_CACHE:      89105
LLC PQ	ACCESS:     143736	FORWARD:          0	MERGED:          0	TO_CACHE:     143736

LLC Dense regions hint to LLC: 0

RAW hits: 1383385
Loads Generated: 11567078
Loads sent to L1D: 10183692
Stores Generated: 5563751
Stores sent to L1D: 5563751
Major fault: 0 Minor fault: 4303
Allocated PAGES: 4303

stream: 
stream:times selected: 1109876
stream:pref_filled: 136272
stream:pref_useful: 127303
stream:pref_late: 2540
stream:misses: 32
stream:misses_by_poll: 0

CS: 
CS:times selected: 237343
CS:pref_filled: 4770
CS:pref_useful: 4658
CS:pref_late: 10
CS:misses: 19688
CS:misses_by_poll: 12

CPLX: 
CPLX:times selected: 872450
CPLX:pref_filled: 253
CPLX:pref_useful: 31
CPLX:pref_late: 5
CPLX:misses: 650
CPLX:misses_by_poll: 0

NL_L1: 
NL:times selected: 10
NL:pref_filled: 3
NL:pref_useful: 3
NL:pref_late: 0
NL:misses: 0
NL:misses_by_poll: 0

total selections: 2219679
total_filled: 133933
total_useful: 125098
total_late: 2611
total_polluted: 12
total_misses_after_warmup: 20151
conflicts: 389
Degree Incremented Times: 45835
Degree Decremented Times: 0

L1 IP Table Write Accesses: 7193269
L1 IP Table Read Accesses: 7192880
L1 RST Write Accesses: 889311
L1 RST Read Accesses: 1778622
L1 CSPT Write Accesses: 889311
L1 CSPT Read Accesses: 2853911
L1 RR Filter Tag Write Accesses: 1301744
L1 RR Filter Tag Read Accesses: 156551382
L1 IP Table Tag Write Accesses: 7541577
L1 IP Table Tag Read Accesses: 7541577
L1 RST Tag Write Accesses: 0
L1 RST Tag Read Accesses: 9039191
L1 RR Filter Write Accesses: 0
L1 RR Filter Read Accesses: 7212307
test: 469902
L2 IP Table Read Accesses: 219471
L2 IP Table Write Accesses: 214317
L2 IP Table Tag Read Accesses: 109781
L2 IP Table Tag Write Accesses: 109781

DRAM Statistics
 CHANNEL 0
 RQ ROW_BUFFER_HIT:      80870  ROW_BUFFER_MISS:     157301
 DBUS_CONGESTED:        149
 WQ ROW_BUFFER_HIT:      13181  ROW_BUFFER_MISS:      69472  FULL:          0

 AVG_CONGESTED_CYCLE: 5
 All warmup complete: 2
Channel 0 Bank busy for read cycles: 0
Channel 0 Bank busy for write cycles: 0
Channel 0
Rank 0
0banks busy for read cycles: 73073352
0banks busy for write cycles: 9671
1banks busy for read cycles: 5579025
1banks busy for write cycles: 1491877
2banks busy for read cycles: 2076841
2banks busy for write cycles: 65755
3banks busy for read cycles: 873323
3banks busy for write cycles: 26792
4banks busy for read cycles: 495410
4banks busy for write cycles: 25596
5banks busy for read cycles: 304863
5banks busy for write cycles: 23591
6banks busy for read cycles: 402174
6banks busy for write cycles: 23509
7banks busy for read cycles: 622130
7banks busy for write cycles: 111347
8banks busy for read cycles: 721725
8banks busy for write cycles: 1615131

CPU 0 Branch Prediction Accuracy: 99.9515% MPKI: 0.04976 Average ROB Occupancy at Mispredict: 20.4092
Branch types
NOT_BRANCH: 44864579 89.7292%
BRANCH_DIRECT_JUMP: 347719 0.695438%
BRANCH_INDIRECT: 16 3.2e-05%
BRANCH_CONDITIONAL: 3397101 6.7942%
BRANCH_DIRECT_CALL: 695131 1.39026%
BRANCH_INDIRECT_CALL: 0 0%
BRANCH_RETURN: 695133 1.39027%
BRANCH_OTHER: 0 0%

@sumon_overall_L1D    125098      2608      8855    133933   2602412   2602948
@Sumon_Early_by_class_L1D    121105      3961        31         0
@Sumon_Late_by_class_L1D      2539         8         5         0

@Sumon_Early_by_cycle_L1D      4155      8054     13821     39251     29970      8315       340       379      4422     16360         2        29
@Sumon_Late_by_cycle_L1D      1025      1063       433        74        11         2         0         0         0         0         0         0
@Sumon_Early_stream_L1D      4117      8012     13779     39185     29049      8310       337       345      1589     16358         2        22
@Sumon_Early_CS_L1D        25        37        41        64       921         4         2        34      2833         0         0         0
@Sumon_Early_CPLX_L1D        13         5         1         1         0         1         1         0         0         2         0         7
@Sumon_Late_stream_L1D       963      1059       430        74        11         2         0         0         0         0         0         0
@Sumon_Late_CS_L1D         3         4         1         0         0         0         0         0         0         0         0         0
@Sumon_Late_CPLX_L1D         3         0         2         0         0         0         0         0         0         0         0         0
@sumon_overall_L2C       197       118    142721    143618    604841    604844
@Sumon_Early_by_class_L2C       181         9         4         0
@Sumon_Late_by_class_L2C       115         2         0         0

@Sumon_Early_by_cycle_L2C         4         6         2         7         5        13        17         8         4       115         0        16
@Sumon_Late_by_cycle_L2C         8        51        53         5         1         0         0         0         0         0         0         0
@Sumon_Early_stream_L2C         3         6         2         6         2        10        17         8         2       113         0        12
@Sumon_Early_CS_L2C         0         0         0         1         3         2         0         0         1         2         0         0
@Sumon_Early_CPLX_L2C         0         0         0         0         0         0         0         0         0         0         0         4
@Sumon_Late_stream_L2C         6        50        53         5         1         0         0         0         0         0         0         0
@Sumon_Late_CS_L2C         1         1         0         0         0         0         0         0         0         0         0         0
@Sumon_Late_CPLX_L2C         0         0         0         0         0         0         0         0         0         0         0         0
DRAM PAGES: 1048576
Allocated PAGES: 4303
