
*** ChampSim Multicore Out-of-Order Simulator ***

Warmup Instructions: 10000000
Simulation Instructions: 50000000
Number of CPUs: 1
LLC sets: 2048
LLC ways: 16
Off-chip DRAM Size: 4096 MB Channels: 1 Width: 64-bit Data Rate: 1600 MT/s
CPU 0 runs traces/graph/bf_94B.trace.gz
.gz
CPU 0 Bimodal branch predictor
BTB has LRU replacement policy
ITLB has LRU replacement policy
DTLB has LRU replacement policy
STLB has LRU replacement policy
L1I has LRU replacement policy
IP Table Entries: 256
L1D has LRU replacement policy
IP_Table L2 entries: 256
L2C has LRU replacement policy
LLC has LRU replacement policy
Heartbeat CPU 0 instructions: 10000002 cycles: 3254670 heartbeat IPC: 3.07251 cumulative IPC: 3.07251 (Simulation time: 0 hr 9 min 33 sec) 

Warmup complete CPU 0 instructions: 10000002 cycles: 3254670 (Simulation time: 0 hr 9 min 33 sec) 

Heartbeat CPU 0 instructions: 20000002 cycles: 85951458 heartbeat IPC: 0.120924 cumulative IPC: 0.120924 (Simulation time: 0 hr 20 min 12 sec) 
Heartbeat CPU 0 instructions: 30000001 cycles: 163237014 heartbeat IPC: 0.12939 cumulative IPC: 0.125014 (Simulation time: 0 hr 31 min 0 sec) 
Heartbeat CPU 0 instructions: 40000001 cycles: 244935736 heartbeat IPC: 0.122401 cumulative IPC: 0.124131 (Simulation time: 0 hr 41 min 7 sec) 
Heartbeat CPU 0 instructions: 50000000 cycles: 327679051 heartbeat IPC: 0.120856 cumulative IPC: 0.123295 (Simulation time: 0 hr 47 min 38 sec) 
Heartbeat CPU 0 instructions: 60000000 cycles: 415835508 heartbeat IPC: 0.113435 cumulative IPC: 0.121188 (Simulation time: 0 hr 51 min 51 sec) 
Finished CPU 0 instructions: 50000000 cycles: 412580845 cumulative IPC: 0.121188 (Simulation time: 0 hr 51 min 51 sec) 

ChampSim completed all CPUs

Region of Interest Statistics

CPU 0 cumulative IPC: 0.121188 instructions: 50000000 cycles: 412580845
ITLB TOTAL     ACCESS:    7090809  HIT:    7090809  MISS:          0  HIT %:        100  MISS %:          0   MPKI: 0
ITLB LOAD TRANSLATION ACCESS:    7090809  HIT:    7090809  MISS:          0  HIT %:        100  MISS %:          0   MPKI: 0
ITLB PREFETCH  REQUESTED:          0  ISSUED:          0  USEFUL:          0  USELESS:          0
ITLB USEFUL LOAD PREFETCHES:          0 PREFETCH ISSUED TO LOWER LEVEL:          0  ACCURACY: -nan
ITLB TIMELY PREFETCHES:          0 LATE PREFETCHES: 0 DROPPED PREFETCHES: 0
ITLB PREFETCHES SAME FILL-ORIGIN LEVEL: 0 DIFFERENT FILL-ORIGIN LEVEL: 0
ITLB AVERAGE MISS LATENCY: -nan cycles
ITLB RQ	ACCESS:    8036197	FORWARD:          0	MERGED:     945388	TO_CACHE:    7090809

DTLB TOTAL     ACCESS:   13501691  HIT:   10306186  MISS:    3195505  HIT %:    76.3326  MISS %:    23.6674   MPKI: 63.9101
DTLB LOAD TRANSLATION ACCESS:   13501691  HIT:   10306186  MISS:    3195505  HIT %:    76.3326  MISS %:    23.6674   MPKI: 63.9101
DTLB PREFETCH  REQUESTED:          0  ISSUED:          0  USEFUL:          0  USELESS:          0
DTLB USEFUL LOAD PREFETCHES:          0 PREFETCH ISSUED TO LOWER LEVEL:          0  ACCURACY: -nan
DTLB TIMELY PREFETCHES:          0 LATE PREFETCHES: 0 DROPPED PREFETCHES: 0
DTLB PREFETCHES SAME FILL-ORIGIN LEVEL: 0 DIFFERENT FILL-ORIGIN LEVEL: 0
DTLB AVERAGE MISS LATENCY: 56.1992 cycles
DTLB RQ	ACCESS:   13730693	FORWARD:          0	MERGED:     225289	TO_CACHE:   13505404

STLB TOTAL     ACCESS:    6330158  HIT:    4385300  MISS:    1944858  HIT %:    69.2763  MISS %:    30.7237   MPKI: 38.8972
STLB LOAD TRANSLATION ACCESS:    3195505  HIT:    1252395  MISS:    1943110  HIT %:    39.1924  MISS %:    60.8076   MPKI: 38.8622
STLB TRANSLATION FROM L1D PREFETCHER ACCESS:    3134653  HIT:    3132905  MISS:       1748  HIT %:    99.9442  MISS %:  0.0557637   MPKI: 0.03496
STLB PREFETCH  REQUESTED:          0  ISSUED:          0  USEFUL:       1657  USELESS:         91
STLB USEFUL LOAD PREFETCHES:       1657 PREFETCH ISSUED TO LOWER LEVEL:          0  ACCURACY: inf
STLB TIMELY PREFETCHES:       1657 LATE PREFETCHES: 1 DROPPED PREFETCHES: 0
STLB PREFETCHES SAME FILL-ORIGIN LEVEL: 0 DIFFERENT FILL-ORIGIN LEVEL: 0
STLB AVERAGE MISS LATENCY: 76.9933 cycles
STLB RQ	ACCESS:    6749867	FORWARD:          0	MERGED:     419671	TO_CACHE:    6330196

STLB Hit, L1D data hit: 0
STLB Hit, L2C data hit: 0
STLB Hit, LLC data hit: 0
STLB Hit, LLC data miss: 0
STLB STLB hints to L2: 0
L1D TOTAL     ACCESS:   17245488  HIT:   10761901  MISS:    6483587  HIT %:    62.4042  MISS %:    37.5958   MPKI: 129.672
L1D LOAD      ACCESS:   12719586  HIT:    9721054  MISS:    2998532  HIT %:    76.4259  MISS %:    23.5741   MPKI: 59.9706
L1D RFO       ACCESS:     980171  HIT:     678695  MISS:     301476  HIT %:    69.2425  MISS %:    30.7575   MPKI: 6.02952
L1D PREFETCH  ACCESS:    3545731  HIT:     362152  MISS:    3183579  HIT %:    10.2137  MISS %:    89.7863   MPKI: 63.6716
L1D PREFETCH  REQUESTED:    7108726  ISSUED:    7108726  USEFUL:     656630  USELESS:    2526964
L1D USEFUL LOAD PREFETCHES:     656630 PREFETCH ISSUED TO LOWER LEVEL:    3186662  ACCURACY: 20.6056
L1D TIMELY PREFETCHES:     656630 LATE PREFETCHES: 3081 DROPPED PREFETCHES: 0
L1D PREFETCHES SAME FILL-ORIGIN LEVEL: 3186662 DIFFERENT FILL-ORIGIN LEVEL: 0
L1D AVERAGE MISS LATENCY: 86741.8 cycles
L1D RQ	ACCESS:   19137029	FORWARD:          0	MERGED:    6386531	TO_CACHE:   12750498
L1D WQ	ACCESS:     980195	FORWARD:          0	MERGED:          0	TO_CACHE:     980195
L1D PQ	ACCESS:    3554363	FORWARD:          0	MERGED:          0	TO_CACHE:    3554363

L1D UNIQUE REGIONS ACCESSED: 0
L1D REGIONS CONFLICTS: 0
L1D Cross Page Prefetch Requests: 0
L1D Same Page Prefetch Requests: 4278075
L1D ROI Sum of L1D PQ occupancy: 47464340
L1D PREFETCHES PUSHED FROM L2C: 0
L1I TOTAL     ACCESS:    8036197  HIT:    8036197  MISS:          0  HIT %:        100  MISS %:          0   MPKI: 0
L1I LOAD      ACCESS:    8036197  HIT:    8036197  MISS:          0  HIT %:        100  MISS %:          0   MPKI: 0
L1I PREFETCH  REQUESTED:          0  ISSUED:          0  USEFUL:          0  USELESS:          0
L1I USEFUL LOAD PREFETCHES:          0 PREFETCH ISSUED TO LOWER LEVEL:          0  ACCURACY: -nan
L1I TIMELY PREFETCHES:          0 LATE PREFETCHES: 0 DROPPED PREFETCHES: 0
L1I PREFETCHES SAME FILL-ORIGIN LEVEL: 0 DIFFERENT FILL-ORIGIN LEVEL: 0
L1I AVERAGE MISS LATENCY: -nan cycles
L1I RQ	ACCESS:   12760710	FORWARD:          0	MERGED:    4724513	TO_CACHE:    8036197

BTB TOTAL     ACCESS:    7642883  HIT:    7642876  MISS:          7  HIT %:    99.9999  MISS %: 9.15885e-05   MPKI: 0.00014
BTB BRANCH_DIRECT_JUMP	ACCESS:     389208  HIT:     389207  MISS:          1
BTB BRANCH_INDIRECT	ACCESS:          0  HIT:          0  MISS:          0
BTB BRANCH_CONDITIONAL	ACCESS:    7253675  HIT:    7253669  MISS:          6
BTB BRANCH_DIRECT_CALL	ACCESS:          0  HIT:          0  MISS:          0
BTB BRANCH_INDIRECT_CALL	ACCESS:          0  HIT:          0  MISS:          0
BTB BRANCH_RETURN	ACCESS:          0  HIT:          0  MISS:          0
BTB BRANCH_OTHER ACCESS:          0  HIT:          0  MISS:          0

L2C TOTAL     ACCESS:   11587036  HIT:    5403165  MISS:    6183871  HIT %:    46.6311  MISS %:    53.3689   MPKI: 123.677
L2C LOAD      ACCESS:    2995446  HIT:     436681  MISS:    2558765  HIT %:    14.5782  MISS %:    85.4218   MPKI: 51.1753
L2C DATA LOAD MPKI: 51.1753
L2C INSTRUCTION LOAD MPKI: 0
L2C RFO       ACCESS:     301473  HIT:      11147  MISS:     290326  HIT %:    3.69751  MISS %:    96.3025   MPKI: 5.80652
L2C PREFETCH  ACCESS:    4815848  HIT:    1940267  MISS:    2875581  HIT %:    40.2892  MISS %:    59.7108   MPKI: 57.5116
L2C DATA PREFETCH MPKI: 57.5116
L2C INSTRUCTION PREFETCH MPKI: 0
L2C WRITEBACK ACCESS:     973238  HIT:     973164  MISS:         74  HIT %:    99.9924  MISS %: 0.00760348   MPKI: 0.00148
L2C LOAD TRANSLATION ACCESS:    2499071  HIT:    2039971  MISS:     459100  HIT %:    81.6292  MISS %:    18.3708   MPKI: 9.182
L2C TRANSLATION FROM L1D PREFETCHER ACCESS:       1960  HIT:       1935  MISS:         25  HIT %:    98.7245  MISS %:    1.27551   MPKI: 0.0005
L2C PREFETCH  REQUESTED:    1892839  ISSUED:    1892833  USEFUL:     148713  USELESS:    2726885
L2C USEFUL LOAD PREFETCHES:     148713 PREFETCH ISSUED TO LOWER LEVEL:    2876083  ACCURACY: 5.17068
L2C TIMELY PREFETCHES:     148713 LATE PREFETCHES: 502 DROPPED PREFETCHES: 0
L2C PREFETCHES SAME FILL-ORIGIN LEVEL: 639278 DIFFERENT FILL-ORIGIN LEVEL: 0
L2C AVERAGE MISS LATENCY: 222.757 cycles
L2C RQ	ACCESS:    5797959	FORWARD:          0	MERGED:          0	TO_CACHE:    5797951
L2C WQ	ACCESS:     973238	FORWARD:         11	MERGED:          0	TO_CACHE:     973238
L2C PQ	ACCESS:    5079488	FORWARD:          0	MERGED:     222255	TO_CACHE:    4857230

L2C Instructions Evicting Data 0
L2C Translations Evicting Data 424847
L2C Data Evicting Data 5299968
L2C Instructions Evicting Instructions 0
L2C Translations Evicting Instructions 0
L2C Data Evicting Instructions 0
L2C Instructions Evicting Translations 0
L2C Translations Evicting Translations 34278
L2C Data Evicting Translations 424704
L2C Dense regions hint from L2: 0
PSCL5 TOTAL     ACCESS:    1944857  HIT:    1944857  MISS:          0  HIT %:        100  MISS %:          0   MPKI: 0
PSCL5 LOAD TRANSLATION ACCESS:    1943108  HIT:    1943108  MISS:          0  HIT %:        100  MISS %:          0   MPKI: 0
PSCL5 TRANSLATION FROM L1D PREFETCHER ACCESS:       1749  HIT:       1749  MISS:          0  HIT %:        100  MISS %:          0   MPKI: 0
PSCL5 PREFETCH  REQUESTED:          0  ISSUED:          0  USEFUL:          0  USELESS:          0
PSCL5 USEFUL LOAD PREFETCHES:          0 PREFETCH ISSUED TO LOWER LEVEL:          0  ACCURACY: -nan
PSCL5 TIMELY PREFETCHES:          0 LATE PREFETCHES: 0 DROPPED PREFETCHES: 0
PSCL5 PREFETCHES SAME FILL-ORIGIN LEVEL: 0 DIFFERENT FILL-ORIGIN LEVEL: 0

PSCL4 TOTAL     ACCESS:    1944857  HIT:    1944857  MISS:          0  HIT %:        100  MISS %:          0   MPKI: 0
PSCL4 LOAD TRANSLATION ACCESS:    1943108  HIT:    1943108  MISS:          0  HIT %:        100  MISS %:          0   MPKI: 0
PSCL4 TRANSLATION FROM L1D PREFETCHER ACCESS:       1749  HIT:       1749  MISS:          0  HIT %:        100  MISS %:          0   MPKI: 0
PSCL4 PREFETCH  REQUESTED:          0  ISSUED:          0  USEFUL:          0  USELESS:          0
PSCL4 USEFUL LOAD PREFETCHES:          0 PREFETCH ISSUED TO LOWER LEVEL:          0  ACCURACY: -nan
PSCL4 TIMELY PREFETCHES:          0 LATE PREFETCHES: 0 DROPPED PREFETCHES: 0
PSCL4 PREFETCHES SAME FILL-ORIGIN LEVEL: 0 DIFFERENT FILL-ORIGIN LEVEL: 0

PSCL3 TOTAL     ACCESS:    1944857  HIT:    1944857  MISS:          0  HIT %:        100  MISS %:          0   MPKI: 0
PSCL3 LOAD TRANSLATION ACCESS:    1943108  HIT:    1943108  MISS:          0  HIT %:        100  MISS %:          0   MPKI: 0
PSCL3 TRANSLATION FROM L1D PREFETCHER ACCESS:       1749  HIT:       1749  MISS:          0  HIT %:        100  MISS %:          0   MPKI: 0
PSCL3 PREFETCH  REQUESTED:          0  ISSUED:          0  USEFUL:          0  USELESS:          0
PSCL3 USEFUL LOAD PREFETCHES:          0 PREFETCH ISSUED TO LOWER LEVEL:          0  ACCURACY: -nan
PSCL3 TIMELY PREFETCHES:          0 LATE PREFETCHES: 0 DROPPED PREFETCHES: 0
PSCL3 PREFETCHES SAME FILL-ORIGIN LEVEL: 0 DIFFERENT FILL-ORIGIN LEVEL: 0

PSCL2 TOTAL     ACCESS:    1944858  HIT:    1388662  MISS:     556196  HIT %:    71.4017  MISS %:    28.5983   MPKI: 11.1239
PSCL2 LOAD TRANSLATION ACCESS:    1943320  HIT:    1387124  MISS:     556196  HIT %:    71.3791  MISS %:    28.6209   MPKI: 11.1239
PSCL2 TRANSLATION FROM L1D PREFETCHER ACCESS:       1538  HIT:       1538  MISS:          0  HIT %:        100  MISS %:          0   MPKI: 0
PSCL2 PREFETCH  REQUESTED:          0  ISSUED:          0  USEFUL:          0  USELESS:          0
PSCL2 USEFUL LOAD PREFETCHES:          0 PREFETCH ISSUED TO LOWER LEVEL:          0  ACCURACY: -nan
PSCL2 TIMELY PREFETCHES:          0 LATE PREFETCHES: 0 DROPPED PREFETCHES: 0
PSCL2 PREFETCHES SAME FILL-ORIGIN LEVEL: 0 DIFFERENT FILL-ORIGIN LEVEL: 0

LLC TOTAL     ACCESS:    7136285  HIT:    2063000  MISS:    5073285  HIT %:    28.9086  MISS %:    71.0914   MPKI: 101.466
LLC LOAD      ACCESS:    2558261  HIT:     426577  MISS:    2131684  HIT %:    16.6745  MISS %:    83.3255   MPKI: 42.6337
LLC RFO       ACCESS:     290324  HIT:      19571  MISS:     270753  HIT %:    6.74109  MISS %:    93.2589   MPKI: 5.41506
LLC PREFETCH  ACCESS:    2876083  HIT:     362394  MISS:    2513689  HIT %:    12.6003  MISS %:    87.3997   MPKI: 50.2738
LLC WRITEBACK ACCESS:     952492  HIT:     951797  MISS:        695  HIT %:     99.927  MISS %:  0.0729665   MPKI: 0.0139
LLC LOAD TRANSLATION ACCESS:     459100  HIT:     302648  MISS:     156452  HIT %:     65.922  MISS %:     34.078   MPKI: 3.12904
LLC TRANSLATION FROM L1D PREFETCHER ACCESS:         25  HIT:         13  MISS:         12  HIT %:         52  MISS %:         48   MPKI: 0.00024
LLC PREFETCH  REQUESTED:          0  ISSUED:          0  USEFUL:     143878  USELESS:    2368922
LLC USEFUL LOAD PREFETCHES:     143878 PREFETCH ISSUED TO LOWER LEVEL:    2513689  ACCURACY: 5.72378
LLC TIMELY PREFETCHES:     143878 LATE PREFETCHES: 0 DROPPED PREFETCHES: 0
LLC PREFETCHES SAME FILL-ORIGIN LEVEL: 0 DIFFERENT FILL-ORIGIN LEVEL: 0
LLC AVERAGE MISS LATENCY: 234.792 cycles
LLC RQ	ACCESS:    3307714	FORWARD:          0	MERGED:          0	TO_CACHE:    3307710
LLC WQ	ACCESS:     952492	FORWARD:          4	MERGED:          0	TO_CACHE:     952492
LLC PQ	ACCESS:    2876083	FORWARD:          0	MERGED:          0	TO_CACHE:    2876083

LLC Dense regions hint to LLC: 0

RAW hits: 0
Loads Generated: 19137030
Loads sent to L1D: 19137029
Stores Generated: 980194
Stores sent to L1D: 980195
Major fault: 0 Minor fault: 49786
Allocated PAGES: 49786

stream: 
stream:times selected: 5549666
stream:pref_filled: 2872032
stream:pref_useful: 53561
stream:pref_late: 772
stream:misses: 1028657
stream:misses_by_poll: 0

CS: 
CS:times selected: 1768177
CS:pref_filled: 832440
CS:pref_useful: 726158
CS:pref_late: 3059
CS:misses: 78928
CS:misses_by_poll: 1979

CPLX: 
CPLX:times selected: 3656212
CPLX:pref_filled: 125643
CPLX:pref_useful: 2420
CPLX:pref_late: 27
CPLX:misses: 2532635
CPLX:misses_by_poll: 119

NL_L1: 
NL:times selected: 4478
NL:pref_filled: 3683
NL:pref_useful: 80
NL:pref_late: 1
NL:misses: 4381
NL:misses_by_poll: 0

total selections: 10978533
total_filled: 3183579
total_useful: 656630
total_late: 3948
total_polluted: 2098
total_misses_after_warmup: 3029447
conflicts: 0
Degree Incremented Times: 60931
Degree Decremented Times: 129418

L1 IP Table Write Accesses: 12750501
L1 IP Table Read Accesses: 12750501
L1 RST Write Accesses: 4676204
L1 RST Read Accesses: 9352408
L1 CSPT Write Accesses: 4676204
L1 CSPT Read Accesses: 7720781
L1 RR Filter Tag Write Accesses: 3554363
L1 RR Filter Tag Read Accesses: 229352294
L1 IP Table Tag Write Accesses: 12750501
L1 IP Table Tag Read Accesses: 12750501
L1 RST Tag Write Accesses: 0
L1 RST Tag Read Accesses: 42676511
L1 RR Filter Write Accesses: 0
L1 RR Filter Read Accesses: 9252537
test: 2800292
L2 IP Table Read Accesses: 12157696
L2 IP Table Write Accesses: 9162250
L2 IP Table Tag Read Accesses: 6078848
L2 IP Table Tag Write Accesses: 6078848

DRAM Statistics
 CHANNEL 0
 RQ ROW_BUFFER_HIT:      86248  ROW_BUFFER_MISS:    4985805
 DBUS_CONGESTED:    2382883
 WQ ROW_BUFFER_HIT:     564380  ROW_BUFFER_MISS:     351547  FULL:          0

 AVG_CONGESTED_CYCLE: 10
 All warmup complete: 2
Channel 0 Bank busy for read cycles: 0
Channel 0 Bank busy for write cycles: 0
Channel 0
Rank 0
0banks busy for read cycles: 6281209
0banks busy for write cycles: 43954
1banks busy for read cycles: 100334264
1banks busy for write cycles: 10594803
2banks busy for read cycles: 91612276
2banks busy for write cycles: 14389205
3banks busy for read cycles: 52775842
3banks busy for write cycles: 16181690
4banks busy for read cycles: 34579325
4banks busy for write cycles: 15756342
5banks busy for read cycles: 19656326
5banks busy for write cycles: 13816852
6banks busy for read cycles: 10289122
6banks busy for write cycles: 10737755
7banks busy for read cycles: 4076639
7banks busy for write cycles: 7049302
8banks busy for read cycles: 1127490
8banks busy for write cycles: 3278450

CPU 0 Branch Prediction Accuracy: 87.5765% MPKI: 21.333 Average ROB Occupancy at Mispredict: 27.2939
Branch types
NOT_BRANCH: 41413878 82.8278%
BRANCH_DIRECT_JUMP: 389208 0.778416%
BRANCH_INDIRECT: 0 0%
BRANCH_CONDITIONAL: 8196553 16.3931%
BRANCH_DIRECT_CALL: 0 0%
BRANCH_INDIRECT_CALL: 0 0%
BRANCH_RETURN: 0 0%
BRANCH_OTHER: 0 0%

@sumon_overall_L1D    656630      3081   2526964   3183579   7108726   7108726
@Sumon_Early_by_class_L1D     44433    610171      2026         0
@Sumon_Late_by_class_L1D       499      2496        25         0

@Sumon_Early_by_cycle_L1D      5615      3162      9370     12976     16109    176020    262595    110802     29471     20132      7098      3280
@Sumon_Late_by_cycle_L1D       847      1889       339         6         0         0         0         0         0         0         0         0
@Sumon_Early_stream_L1D      2151       552      1784      1751      1560      5437      4381      6217      7464      8021      4170       945
@Sumon_Early_CS_L1D      3444      2586      7531     11161     14494    170374    258027    104303     21636     11646      2683      2286
@Sumon_Early_CPLX_L1D        20        24        55        64        55       209       187       282       371       465       245        49
@Sumon_Late_stream_L1D       316       151        29         3         0         0         0         0         0         0         0         0
@Sumon_Late_CS_L1D       454      1730       309         3         0         0         0         0         0         0         0         0
@Sumon_Late_CPLX_L1D        16         8         1         0         0         0         0         0         0         0         0         0
@sumon_overall_L2C    148713       502   2726885   2875606   1892833   1892839
@Sumon_Early_by_class_L2C    122971     20231      5510         0
@Sumon_Late_by_class_L2C         0       490         0         0

@Sumon_Early_by_cycle_L2C       131       242       711       871       845      4766      3006      2895      7373     17293     20611     89969
@Sumon_Late_by_cycle_L2C        81       351        70         0         0         0         0         0         0         0         0         0
@Sumon_Early_stream_L2C         0         0         0         0         0         2       182      1698      6504     15046     17756     81783
@Sumon_Early_CS_L2C       131       242       711       871       845      4764      2822      1153       677      1694      2123      4198
@Sumon_Early_CPLX_L2C         0         0         0         0         0         0         2        44       192       552       732      3988
@Sumon_Late_stream_L2C         0         0         0         0         0         0         0         0         0         0         0         0
@Sumon_Late_CS_L2C        69       351        70         0         0         0         0         0         0         0         0         0
@Sumon_Late_CPLX_L2C         0         0         0         0         0         0         0         0         0         0         0         0
DRAM PAGES: 1048576
Allocated PAGES: 49786
