
*** ChampSim Multicore Out-of-Order Simulator ***

Warmup Instructions: 10000000
Simulation Instructions: 50000000
Number of CPUs: 1
LLC sets: 2048
LLC ways: 16
Off-chip DRAM Size: 4096 MB Channels: 1 Width: 64-bit Data Rate: 1600 MT/s
CPU 0 runs traces/graph/BFS_61B.trace.gz
.gz
CPU 0 Bimodal branch predictor
BTB has LRU replacement policy
ITLB has LRU replacement policy
DTLB has LRU replacement policy
STLB has LRU replacement policy
L1I has LRU replacement policy
IP Table Entries: 256
L1D has LRU replacement policy
IP_Table L2 entries: 256
L2C has LRU replacement policy
LLC has LRU replacement policy
Heartbeat CPU 0 instructions: 10000001 cycles: 3196493 heartbeat IPC: 3.12843 cumulative IPC: 3.12843 (Simulation time: 0 hr 4 min 58 sec) 

Warmup complete CPU 0 instructions: 10000001 cycles: 3196493 (Simulation time: 0 hr 4 min 58 sec) 

Heartbeat CPU 0 instructions: 20000002 cycles: 55162706 heartbeat IPC: 0.192433 cumulative IPC: 0.192433 (Simulation time: 0 hr 12 min 17 sec) 
Heartbeat CPU 0 instructions: 30000001 cycles: 113099311 heartbeat IPC: 0.172602 cumulative IPC: 0.181979 (Simulation time: 0 hr 19 min 28 sec) 
Heartbeat CPU 0 instructions: 40000000 cycles: 176252907 heartbeat IPC: 0.158344 cumulative IPC: 0.173354 (Simulation time: 0 hr 26 min 43 sec) 
Heartbeat CPU 0 instructions: 50000000 cycles: 237000661 heartbeat IPC: 0.164615 cumulative IPC: 0.171083 (Simulation time: 0 hr 33 min 58 sec) 
Heartbeat CPU 0 instructions: 60000000 cycles: 301171907 heartbeat IPC: 0.155833 cumulative IPC: 0.167799 (Simulation time: 0 hr 40 min 51 sec) 
Finished CPU 0 instructions: 50000001 cycles: 297975419 cumulative IPC: 0.167799 (Simulation time: 0 hr 40 min 51 sec) 

ChampSim completed all CPUs

Region of Interest Statistics

CPU 0 cumulative IPC: 0.167799 instructions: 50000001 cycles: 297975419
ITLB TOTAL     ACCESS:    7829303  HIT:    7829303  MISS:          0  HIT %:        100  MISS %:          0   MPKI: 0
ITLB LOAD TRANSLATION ACCESS:    7829303  HIT:    7829303  MISS:          0  HIT %:        100  MISS %:          0   MPKI: 0
ITLB PREFETCH  REQUESTED:          0  ISSUED:          0  USEFUL:          0  USELESS:          0
ITLB USEFUL LOAD PREFETCHES:          0 PREFETCH ISSUED TO LOWER LEVEL:          0  ACCURACY: -nan
ITLB TIMELY PREFETCHES:          0 LATE PREFETCHES: 0 DROPPED PREFETCHES: 0
ITLB PREFETCHES SAME FILL-ORIGIN LEVEL: 0 DIFFERENT FILL-ORIGIN LEVEL: 0
ITLB AVERAGE MISS LATENCY: -nan cycles
ITLB RQ	ACCESS:    7829302	FORWARD:          0	MERGED:          0	TO_CACHE:    7829302

DTLB TOTAL     ACCESS:   15099250  HIT:   13818473  MISS:    1280777  HIT %:    91.5176  MISS %:    8.48239   MPKI: 25.6155
DTLB LOAD TRANSLATION ACCESS:   15099250  HIT:   13818473  MISS:    1280777  HIT %:    91.5176  MISS %:    8.48239   MPKI: 25.6155
DTLB PREFETCH  REQUESTED:          0  ISSUED:          0  USEFUL:          0  USELESS:          0
DTLB USEFUL LOAD PREFETCHES:          0 PREFETCH ISSUED TO LOWER LEVEL:          0  ACCURACY: -nan
DTLB TIMELY PREFETCHES:          0 LATE PREFETCHES: 0 DROPPED PREFETCHES: 0
DTLB PREFETCHES SAME FILL-ORIGIN LEVEL: 0 DIFFERENT FILL-ORIGIN LEVEL: 0
DTLB AVERAGE MISS LATENCY: 20.4262 cycles
DTLB RQ	ACCESS:   15664026	FORWARD:          0	MERGED:     559867	TO_CACHE:   15104159

STLB TOTAL     ACCESS:    3801063  HIT:    3582243  MISS:     218820  HIT %:    94.2432  MISS %:    5.75681   MPKI: 4.3764
STLB LOAD TRANSLATION ACCESS:    1280777  HIT:    1061957  MISS:     218820  HIT %:    82.9151  MISS %:    17.0849   MPKI: 4.3764
STLB TRANSLATION FROM L1D PREFETCHER ACCESS:    2520286  HIT:    2520286  MISS:          0  HIT %:        100  MISS %:          0   MPKI: 0
STLB PREFETCH  REQUESTED:          0  ISSUED:          0  USEFUL:          0  USELESS:          0
STLB USEFUL LOAD PREFETCHES:          0 PREFETCH ISSUED TO LOWER LEVEL:          0  ACCURACY: -nan
STLB TIMELY PREFETCHES:          0 LATE PREFETCHES: 0 DROPPED PREFETCHES: 0
STLB PREFETCHES SAME FILL-ORIGIN LEVEL: 0 DIFFERENT FILL-ORIGIN LEVEL: 0
STLB AVERAGE MISS LATENCY: 65.2077 cycles
STLB RQ	ACCESS:    4666888	FORWARD:          0	MERGED:     865825	TO_CACHE:    3801063

STLB Hit, L1D data hit: 0
STLB Hit, L2C data hit: 0
STLB Hit, LLC data hit: 0
STLB Hit, LLC data miss: 0
STLB STLB hints to L2: 0
L1D TOTAL     ACCESS:   18675176  HIT:   14049762  MISS:    4625414  HIT %:    75.2323  MISS %:    24.7677   MPKI: 92.5083
L1D LOAD      ACCESS:   11377791  HIT:    9749559  MISS:    1628232  HIT %:    85.6894  MISS %:    14.3106   MPKI: 32.5646
L1D RFO       ACCESS:    3947747  HIT:    3905593  MISS:      42154  HIT %:    98.9322  MISS %:     1.0678   MPKI: 0.84308
L1D PREFETCH  ACCESS:    3349638  HIT:     394610  MISS:    2955028  HIT %:    11.7807  MISS %:    88.2193   MPKI: 59.1006
L1D PREFETCH  REQUESTED:    6775132  ISSUED:    6772222  USEFUL:    1148666  USELESS:    1806607
L1D USEFUL LOAD PREFETCHES:    1148666 PREFETCH ISSUED TO LOWER LEVEL:    2977706  ACCURACY: 38.5755
L1D TIMELY PREFETCHES:    1148666 LATE PREFETCHES: 22680 DROPPED PREFETCHES: 0
L1D PREFETCHES SAME FILL-ORIGIN LEVEL: 2977706 DIFFERENT FILL-ORIGIN LEVEL: 0
L1D AVERAGE MISS LATENCY: 664255 cycles
L1D RQ	ACCESS:   12909271	FORWARD:          0	MERGED:    1507951	TO_CACHE:   11401320
L1D WQ	ACCESS:    4304355	FORWARD:          0	MERGED:      41649	TO_CACHE:    4262706
L1D PQ	ACCESS:    3386111	FORWARD:          0	MERGED:          0	TO_CACHE:    3386111

L1D UNIQUE REGIONS ACCESSED: 0
L1D REGIONS CONFLICTS: 0
L1D Cross Page Prefetch Requests: 0
L1D Same Page Prefetch Requests: 4234978
L1D ROI Sum of L1D PQ occupancy: 45365983
L1D PREFETCHES PUSHED FROM L2C: 0
L1I TOTAL     ACCESS:    7829303  HIT:    7829303  MISS:          0  HIT %:        100  MISS %:          0   MPKI: 0
L1I LOAD      ACCESS:    7829303  HIT:    7829303  MISS:          0  HIT %:        100  MISS %:          0   MPKI: 0
L1I PREFETCH  REQUESTED:          0  ISSUED:          0  USEFUL:          0  USELESS:          0
L1I USEFUL LOAD PREFETCHES:          0 PREFETCH ISSUED TO LOWER LEVEL:          0  ACCURACY: -nan
L1I TIMELY PREFETCHES:          0 LATE PREFETCHES: 0 DROPPED PREFETCHES: 0
L1I PREFETCHES SAME FILL-ORIGIN LEVEL: 0 DIFFERENT FILL-ORIGIN LEVEL: 0
L1I AVERAGE MISS LATENCY: -nan cycles
L1I RQ	ACCESS:   11024676	FORWARD:          0	MERGED:    3195374	TO_CACHE:    7829302

BTB TOTAL     ACCESS:    8357606  HIT:    8357599  MISS:          7  HIT %:    99.9999  MISS %: 8.3756e-05   MPKI: 0.00014
BTB BRANCH_DIRECT_JUMP	ACCESS:     247254  HIT:     247253  MISS:          1
BTB BRANCH_INDIRECT	ACCESS:          0  HIT:          0  MISS:          0
BTB BRANCH_CONDITIONAL	ACCESS:    8110352  HIT:    8110346  MISS:          6
BTB BRANCH_DIRECT_CALL	ACCESS:          0  HIT:          0  MISS:          0
BTB BRANCH_INDIRECT_CALL	ACCESS:          0  HIT:          0  MISS:          0
BTB BRANCH_RETURN	ACCESS:          0  HIT:          0  MISS:          0
BTB BRANCH_OTHER ACCESS:          0  HIT:          0  MISS:          0

L2C TOTAL     ACCESS:    7469401  HIT:    3520288  MISS:    3949113  HIT %:    47.1295  MISS %:    52.8705   MPKI: 78.9823
L2C LOAD      ACCESS:    1605551  HIT:     430644  MISS:    1174907  HIT %:    26.8222  MISS %:    73.1778   MPKI: 23.4981
L2C DATA LOAD MPKI: 23.4981
L2C INSTRUCTION LOAD MPKI: 0
L2C RFO       ACCESS:      42154  HIT:          0  MISS:      42154  HIT %:          0  MISS %:        100   MPKI: 0.84308
L2C PREFETCH  ACCESS:    5412563  HIT:    2741385  MISS:    2671178  HIT %:    50.6486  MISS %:    49.3514   MPKI: 53.4236
L2C DATA PREFETCH MPKI: 53.4236
L2C INSTRUCTION PREFETCH MPKI: 0
L2C WRITEBACK ACCESS:     190277  HIT:     190276  MISS:          1  HIT %:    99.9995  MISS %: 0.00052555   MPKI: 2e-05
L2C LOAD TRANSLATION ACCESS:     218856  HIT:     157983  MISS:      60873  HIT %:    72.1858  MISS %:    27.8142   MPKI: 1.21746
L2C PREFETCH  REQUESTED:    3021614  ISSUED:    3021614  USEFUL:     177090  USELESS:    2495190
L2C USEFUL LOAD PREFETCHES:     177090 PREFETCH ISSUED TO LOWER LEVEL:    2672798  ACCURACY: 6.62564
L2C TIMELY PREFETCHES:     177090 LATE PREFETCHES: 1620 DROPPED PREFETCHES: 0
L2C PREFETCHES SAME FILL-ORIGIN LEVEL: 1109861 DIFFERENT FILL-ORIGIN LEVEL: 0
L2C AVERAGE MISS LATENCY: 170.23 cycles
L2C RQ	ACCESS:    1866561	FORWARD:          0	MERGED:          0	TO_CACHE:    1866561
L2C WQ	ACCESS:     190277	FORWARD:          0	MERGED:          0	TO_CACHE:     190277
L2C PQ	ACCESS:    5999320	FORWARD:          0	MERGED:     459032	TO_CACHE:    5540288

L2C Instructions Evicting Data 0
L2C Translations Evicting Data 59798
L2C Data Evicting Data 3828523
L2C Instructions Evicting Instructions 0
L2C Translations Evicting Instructions 0
L2C Data Evicting Instructions 0
L2C Instructions Evicting Translations 0
L2C Translations Evicting Translations 1075
L2C Data Evicting Translations 59716
L2C Dense regions hint from L2: 0
PSCL5 TOTAL     ACCESS:     218820  HIT:     218820  MISS:          0  HIT %:        100  MISS %:          0   MPKI: 0
PSCL5 LOAD TRANSLATION ACCESS:     218820  HIT:     218820  MISS:          0  HIT %:        100  MISS %:          0   MPKI: 0
PSCL5 PREFETCH  REQUESTED:          0  ISSUED:          0  USEFUL:          0  USELESS:          0
PSCL5 USEFUL LOAD PREFETCHES:          0 PREFETCH ISSUED TO LOWER LEVEL:          0  ACCURACY: -nan
PSCL5 TIMELY PREFETCHES:          0 LATE PREFETCHES: 0 DROPPED PREFETCHES: 0
PSCL5 PREFETCHES SAME FILL-ORIGIN LEVEL: 0 DIFFERENT FILL-ORIGIN LEVEL: 0

PSCL4 TOTAL     ACCESS:     218820  HIT:     218820  MISS:          0  HIT %:        100  MISS %:          0   MPKI: 0
PSCL4 LOAD TRANSLATION ACCESS:     218820  HIT:     218820  MISS:          0  HIT %:        100  MISS %:          0   MPKI: 0
PSCL4 PREFETCH  REQUESTED:          0  ISSUED:          0  USEFUL:          0  USELESS:          0
PSCL4 USEFUL LOAD PREFETCHES:          0 PREFETCH ISSUED TO LOWER LEVEL:          0  ACCURACY: -nan
PSCL4 TIMELY PREFETCHES:          0 LATE PREFETCHES: 0 DROPPED PREFETCHES: 0
PSCL4 PREFETCHES SAME FILL-ORIGIN LEVEL: 0 DIFFERENT FILL-ORIGIN LEVEL: 0

PSCL3 TOTAL     ACCESS:     218820  HIT:     218820  MISS:          0  HIT %:        100  MISS %:          0   MPKI: 0
PSCL3 LOAD TRANSLATION ACCESS:     218820  HIT:     218820  MISS:          0  HIT %:        100  MISS %:          0   MPKI: 0
PSCL3 PREFETCH  REQUESTED:          0  ISSUED:          0  USEFUL:          0  USELESS:          0
PSCL3 USEFUL LOAD PREFETCHES:          0 PREFETCH ISSUED TO LOWER LEVEL:          0  ACCURACY: -nan
PSCL3 TIMELY PREFETCHES:          0 LATE PREFETCHES: 0 DROPPED PREFETCHES: 0
PSCL3 PREFETCHES SAME FILL-ORIGIN LEVEL: 0 DIFFERENT FILL-ORIGIN LEVEL: 0

PSCL2 TOTAL     ACCESS:     218820  HIT:     218701  MISS:        119  HIT %:    99.9456  MISS %:  0.0543826   MPKI: 0.00238
PSCL2 LOAD TRANSLATION ACCESS:     218820  HIT:     218701  MISS:        119  HIT %:    99.9456  MISS %:  0.0543826   MPKI: 0.00238
PSCL2 PREFETCH  REQUESTED:          0  ISSUED:          0  USEFUL:          0  USELESS:          0
PSCL2 USEFUL LOAD PREFETCHES:          0 PREFETCH ISSUED TO LOWER LEVEL:          0  ACCURACY: -nan
PSCL2 TIMELY PREFETCHES:          0 LATE PREFETCHES: 0 DROPPED PREFETCHES: 0
PSCL2 PREFETCHES SAME FILL-ORIGIN LEVEL: 0 DIFFERENT FILL-ORIGIN LEVEL: 0

LLC TOTAL     ACCESS:    4139198  HIT:     863977  MISS:    3275221  HIT %:    20.8731  MISS %:    79.1269   MPKI: 65.5044
LLC LOAD      ACCESS:    1173287  HIT:     303986  MISS:     869301  HIT %:    25.9089  MISS %:    74.0911   MPKI: 17.386
LLC RFO       ACCESS:      42154  HIT:          0  MISS:      42154  HIT %:          0  MISS %:        100   MPKI: 0.84308
LLC PREFETCH  ACCESS:    2672798  HIT:     330581  MISS:    2342217  HIT %:    12.3683  MISS %:    87.6317   MPKI: 46.8443
LLC WRITEBACK ACCESS:     190086  HIT:     190086  MISS:          0  HIT %:        100  MISS %:          0   MPKI: 0
LLC LOAD TRANSLATION ACCESS:      60873  HIT:      39324  MISS:      21549  HIT %:    64.6001  MISS %:    35.3999   MPKI: 0.43098
LLC PREFETCH  REQUESTED:          0  ISSUED:          0  USEFUL:     106339  USELESS:    2240827
LLC USEFUL LOAD PREFETCHES:     106339 PREFETCH ISSUED TO LOWER LEVEL:    2342217  ACCURACY: 4.5401
LLC TIMELY PREFETCHES:     106339 LATE PREFETCHES: 0 DROPPED PREFETCHES: 0
LLC PREFETCHES SAME FILL-ORIGIN LEVEL: 0 DIFFERENT FILL-ORIGIN LEVEL: 0
LLC AVERAGE MISS LATENCY: 168.683 cycles
LLC RQ	ACCESS:    1276314	FORWARD:          0	MERGED:          0	TO_CACHE:    1276314
LLC WQ	ACCESS:     190086	FORWARD:          0	MERGED:          0	TO_CACHE:     190086
LLC PQ	ACCESS:    2672798	FORWARD:          0	MERGED:          0	TO_CACHE:    2672798

LLC Dense regions hint to LLC: 0

RAW hits: 0
Loads Generated: 12909266
Loads sent to L1D: 12909271
Stores Generated: 4304354
Stores sent to L1D: 4304355
Major fault: 0 Minor fault: 53101
Allocated PAGES: 53101

stream: 
stream:times selected: 3461370
stream:pref_filled: 2452625
stream:pref_useful: 588105
stream:pref_late: 16972
stream:misses: 324240
stream:misses_by_poll: 0

CS: 
CS:times selected: 1386718
CS:pref_filled: 1135372
CS:pref_useful: 924853
CS:pref_late: 5942
CS:misses: 86881
CS:misses_by_poll: 6444

CPLX: 
CPLX:times selected: 2037103
CPLX:pref_filled: 52162
CPLX:pref_useful: 5586
CPLX:pref_late: 267
CPLX:misses: 1311975
CPLX:misses_by_poll: 66

NL_L1: 
NL:times selected: 8193
NL:pref_filled: 4959
NL:pref_useful: 579
NL:pref_late: 61
NL:misses: 6097
NL:misses_by_poll: 1

total selections: 6893384
total_filled: 2955028
total_useful: 1148666
total_late: 23933
total_polluted: 6511
total_misses_after_warmup: 1651764
conflicts: 0
Degree Incremented Times: 47970
Degree Decremented Times: 108079

L1 IP Table Write Accesses: 11401323
L1 IP Table Read Accesses: 11401323
L1 RST Write Accesses: 3004638
L1 RST Read Accesses: 6009276
L1 CSPT Write Accesses: 3004638
L1 CSPT Read Accesses: 4934162
L1 RR Filter Tag Write Accesses: 3389021
L1 RR Filter Tag Read Accesses: 190408251
L1 IP Table Tag Write Accesses: 11401323
L1 IP Table Tag Read Accesses: 11401323
L1 RST Tag Write Accesses: 0
L1 RST Tag Read Accesses: 26902198
L1 RR Filter Write Accesses: 0
L1 RR Filter Read Accesses: 6907044
test: 1154102
L2 IP Table Read Accesses: 8811514
L2 IP Table Write Accesses: 7205963
L2 IP Table Tag Read Accesses: 4405757
L2 IP Table Tag Write Accesses: 4405757

DRAM Statistics
 CHANNEL 0
 RQ ROW_BUFFER_HIT:     821168  ROW_BUFFER_MISS:    2454053
 DBUS_CONGESTED:    1330207
 WQ ROW_BUFFER_HIT:      81241  ROW_BUFFER_MISS:     108573  FULL:          0

 AVG_CONGESTED_CYCLE: 10
 All warmup complete: 2
Channel 0 Bank busy for read cycles: 0
Channel 0 Bank busy for write cycles: 0
Channel 0
Rank 0
0banks busy for read cycles: 68242659
0banks busy for write cycles: 106904
1banks busy for read cycles: 73265945
1banks busy for write cycles: 21598879
2banks busy for read cycles: 65562309
2banks busy for write cycles: 7241693
3banks busy for read cycles: 29935041
3banks busy for write cycles: 2431339
4banks busy for read cycles: 15257028
4banks busy for write cycles: 893986
5banks busy for read cycles: 6425233
5banks busy for write cycles: 385530
6banks busy for read cycles: 3191047
6banks busy for write cycles: 190698
7banks busy for read cycles: 2382897
7banks busy for write cycles: 91474
8banks busy for read cycles: 734646
8banks busy for write cycles: 38112

CPU 0 Branch Prediction Accuracy: 83.7717% MPKI: 35.8822 Average ROB Occupancy at Mispredict: 8.80816
Branch types
NOT_BRANCH: 38944183 77.8884%
BRANCH_DIRECT_JUMP: 247254 0.494508%
BRANCH_INDIRECT: 0 0%
BRANCH_CONDITIONAL: 10808201 21.6164%
BRANCH_DIRECT_CALL: 0 0%
BRANCH_INDIRECT_CALL: 0 0%
BRANCH_RETURN: 0 0%
BRANCH_OTHER: 0 0%

@sumon_overall_L1D   1148666     22680   1806607   2955028   6772222   6775132
@Sumon_Early_by_class_L1D    220444    922262      5415        38
@Sumon_Late_by_class_L1D     15954      5801       230        38

@Sumon_Early_by_cycle_L1D     36502     60734    110593    114158    127090    438484    118910    110335     15685     11840      3945       390
@Sumon_Late_by_cycle_L1D     15731      6710       238         1         0         0         0         0         0         0         0         0
@Sumon_Early_stream_L1D     23338     32150     40124     20543     12113     30493     15587     17139     13426     11362      3791       378
@Sumon_Early_CS_L1D     12684     27849     69607     93093    114646    407251    102876     92548      1693        11         4         0
@Sumon_Early_CPLX_L1D       388       612       756       474       316       723       420       605       537       431       141        12
@Sumon_Late_stream_L1D     10677      5076       200         1         0         0         0         0         0         0         0         0
@Sumon_Late_CS_L1D      4226      1540        35         0         0         0         0         0         0         0         0         0
@Sumon_Late_CPLX_L1D       147        80         3         0         0         0         0         0         0         0         0         0
@sumon_overall_L2C    177090      1620   2495190   2671178   3021614   3021614
@Sumon_Early_by_class_L2C    127557     44764      4426         0
@Sumon_Late_by_class_L2C         0      1458         0         0

@Sumon_Early_by_cycle_L2C      3458      6947      9585      6851      4864     10183      2214      1582      5226     12056     17530     96594
@Sumon_Late_by_cycle_L2C      1383       228         9         0         0         0         0         0         0         0         0         0
@Sumon_Early_stream_L2C         0         0         0         0         0         0        36      1141      4968     11577     16893     92942
@Sumon_Early_CS_L2C      3458      6947      9585      6851      4864     10183      2178       412        52        26        26       182
@Sumon_Early_CPLX_L2C         0         0         0         0         0         0         0        26       186       417       579      3218
@Sumon_Late_stream_L2C         0         0         0         0         0         0         0         0         0         0         0         0
@Sumon_Late_CS_L2C      1221       228         9         0         0         0         0         0         0         0         0         0
@Sumon_Late_CPLX_L2C         0         0         0         0         0         0         0         0         0         0         0         0
DRAM PAGES: 1048576
Allocated PAGES: 53101
