
*** ChampSim Multicore Out-of-Order Simulator ***

Warmup Instructions: 10000000
Simulation Instructions: 50000000
Number of CPUs: 1
LLC sets: 2048
LLC ways: 16
Off-chip DRAM Size: 4096 MB Channels: 1 Width: 64-bit Data Rate: 1600 MT/s
CPU 0 runs traces/graph/tc_70B.trace.gz
.gz
CPU 0 Bimodal branch predictor
BTB has LRU replacement policy
ITLB has LRU replacement policy
DTLB has LRU replacement policy
STLB has LRU replacement policy
L1I has LRU replacement policy
IP Table Entries: 256
L1D has LRU replacement policy
IP_Table L2 entries: 256
L2C has LRU replacement policy
LLC has LRU replacement policy
Heartbeat CPU 0 instructions: 10000003 cycles: 3869750 heartbeat IPC: 2.58415 cumulative IPC: 2.58415 (Simulation time: 0 hr 7 min 14 sec) 

Warmup complete CPU 0 instructions: 10000003 cycles: 3869750 (Simulation time: 0 hr 7 min 14 sec) 

Heartbeat CPU 0 instructions: 20000003 cycles: 54859372 heartbeat IPC: 0.196118 cumulative IPC: 0.196118 (Simulation time: 0 hr 13 min 53 sec) 
Heartbeat CPU 0 instructions: 30000000 cycles: 110180010 heartbeat IPC: 0.180764 cumulative IPC: 0.188129 (Simulation time: 0 hr 20 min 47 sec) 
Heartbeat CPU 0 instructions: 40000000 cycles: 174606680 heartbeat IPC: 0.155215 cumulative IPC: 0.175709 (Simulation time: 0 hr 28 min 10 sec) 
Heartbeat CPU 0 instructions: 50000000 cycles: 231715171 heartbeat IPC: 0.175105 cumulative IPC: 0.175558 (Simulation time: 0 hr 35 min 14 sec) 
Heartbeat CPU 0 instructions: 60000000 cycles: 302141280 heartbeat IPC: 0.141993 cumulative IPC: 0.167632 (Simulation time: 0 hr 42 min 7 sec) 
Finished CPU 0 instructions: 50000000 cycles: 298271546 cumulative IPC: 0.167632 (Simulation time: 0 hr 42 min 7 sec) 

ChampSim completed all CPUs

Region of Interest Statistics

CPU 0 cumulative IPC: 0.167632 instructions: 50000000 cycles: 298271546
ITLB TOTAL     ACCESS:    8636772  HIT:    8636772  MISS:          0  HIT %:        100  MISS %:          0   MPKI: 0
ITLB LOAD TRANSLATION ACCESS:    8636772  HIT:    8636772  MISS:          0  HIT %:        100  MISS %:          0   MPKI: 0
ITLB PREFETCH  REQUESTED:          0  ISSUED:          0  USEFUL:          0  USELESS:          0
ITLB USEFUL LOAD PREFETCHES:          0 PREFETCH ISSUED TO LOWER LEVEL:          0  ACCURACY: -nan
ITLB TIMELY PREFETCHES:          0 LATE PREFETCHES: 0 DROPPED PREFETCHES: 0
ITLB PREFETCHES SAME FILL-ORIGIN LEVEL: 0 DIFFERENT FILL-ORIGIN LEVEL: 0
ITLB AVERAGE MISS LATENCY: -nan cycles
ITLB RQ	ACCESS:    9119491	FORWARD:          0	MERGED:     482719	TO_CACHE:    8636772

DTLB TOTAL     ACCESS:   11016960  HIT:    9930429  MISS:    1086531  HIT %:    90.1377  MISS %:    9.86235   MPKI: 21.7306
DTLB LOAD TRANSLATION ACCESS:   11016960  HIT:    9930429  MISS:    1086531  HIT %:    90.1377  MISS %:    9.86235   MPKI: 21.7306
DTLB PREFETCH  REQUESTED:          0  ISSUED:          0  USEFUL:          0  USELESS:          0
DTLB USEFUL LOAD PREFETCHES:          0 PREFETCH ISSUED TO LOWER LEVEL:          0  ACCURACY: -nan
DTLB TIMELY PREFETCHES:          0 LATE PREFETCHES: 0 DROPPED PREFETCHES: 0
DTLB PREFETCHES SAME FILL-ORIGIN LEVEL: 0 DIFFERENT FILL-ORIGIN LEVEL: 0
DTLB AVERAGE MISS LATENCY: 66.7265 cycles
DTLB RQ	ACCESS:   11314281	FORWARD:          0	MERGED:     296614	TO_CACHE:   11017667

STLB TOTAL     ACCESS:    2272047  HIT:    1589878  MISS:     682169  HIT %:    69.9756  MISS %:    30.0244   MPKI: 13.6434
STLB LOAD TRANSLATION ACCESS:    1086531  HIT:     404389  MISS:     682142  HIT %:    37.2184  MISS %:    62.7816   MPKI: 13.6428
STLB TRANSLATION FROM L1D PREFETCHER ACCESS:    1185516  HIT:    1185489  MISS:         27  HIT %:    99.9977  MISS %: 0.00227749   MPKI: 0.00054
STLB PREFETCH  REQUESTED:          0  ISSUED:          0  USEFUL:         27  USELESS:          0
STLB USEFUL LOAD PREFETCHES:         27 PREFETCH ISSUED TO LOWER LEVEL:          0  ACCURACY: inf
STLB TIMELY PREFETCHES:         27 LATE PREFETCHES: 0 DROPPED PREFETCHES: 0
STLB PREFETCHES SAME FILL-ORIGIN LEVEL: 0 DIFFERENT FILL-ORIGIN LEVEL: 0
STLB AVERAGE MISS LATENCY: 91.9047 cycles
STLB RQ	ACCESS:    2638691	FORWARD:          0	MERGED:     366645	TO_CACHE:    2272046

STLB Hit, L1D data hit: 0
STLB Hit, L2C data hit: 0
STLB Hit, LLC data hit: 0
STLB Hit, LLC data miss: 0
STLB STLB hints to L2: 0
L1D TOTAL     ACCESS:   12819430  HIT:   10415004  MISS:    2404426  HIT %:    81.2439  MISS %:    18.7561   MPKI: 48.0885
L1D LOAD      ACCESS:   10242176  HIT:    9085353  MISS:    1156823  HIT %:    88.7053  MISS %:    11.2947   MPKI: 23.1365
L1D RFO       ACCESS:    1046026  HIT:    1046026  MISS:          0  HIT %:        100  MISS %:          0   MPKI: 0
L1D PREFETCH  ACCESS:    1531228  HIT:     283625  MISS:    1247603  HIT %:    18.5227  MISS %:    81.4773   MPKI: 24.9521
L1D PREFETCH  REQUESTED:    3104320  ISSUED:    3104320  USEFUL:     105823  USELESS:    1141780
L1D USEFUL LOAD PREFETCHES:     105823 PREFETCH ISSUED TO LOWER LEVEL:    1248247  ACCURACY: 8.47773
L1D TIMELY PREFETCHES:     105823 LATE PREFETCHES: 637 DROPPED PREFETCHES: 0
L1D PREFETCHES SAME FILL-ORIGIN LEVEL: 1248247 DIFFERENT FILL-ORIGIN LEVEL: 0
L1D AVERAGE MISS LATENCY: 39081.1 cycles
L1D RQ	ACCESS:   11732609	FORWARD:          0	MERGED:    1461621	TO_CACHE:   10268255
L1D WQ	ACCESS:    1046094	FORWARD:       2733	MERGED:         68	TO_CACHE:    1046026
L1D PQ	ACCESS:    1552160	FORWARD:          0	MERGED:          0	TO_CACHE:    1552160

L1D UNIQUE REGIONS ACCESSED: 0
L1D REGIONS CONFLICTS: 0
L1D Cross Page Prefetch Requests: 0
L1D Same Page Prefetch Requests: 1790744
L1D ROI Sum of L1D PQ occupancy: 20410358
L1D PREFETCHES PUSHED FROM L2C: 0
L1I TOTAL     ACCESS:    9119491  HIT:    9119491  MISS:          0  HIT %:        100  MISS %:          0   MPKI: 0
L1I LOAD      ACCESS:    9119491  HIT:    9119491  MISS:          0  HIT %:        100  MISS %:          0   MPKI: 0
L1I PREFETCH  REQUESTED:          0  ISSUED:          0  USEFUL:          0  USELESS:          0
L1I USEFUL LOAD PREFETCHES:          0 PREFETCH ISSUED TO LOWER LEVEL:          0  ACCURACY: -nan
L1I TIMELY PREFETCHES:          0 LATE PREFETCHES: 0 DROPPED PREFETCHES: 0
L1I PREFETCHES SAME FILL-ORIGIN LEVEL: 0 DIFFERENT FILL-ORIGIN LEVEL: 0
L1I AVERAGE MISS LATENCY: -nan cycles
L1I RQ	ACCESS:   12448770	FORWARD:          0	MERGED:    3329279	TO_CACHE:    9119491

BTB TOTAL     ACCESS:   12374183  HIT:   12374169  MISS:         14  HIT %:    99.9999  MISS %: 0.000113139   MPKI: 0.00028
BTB BRANCH_DIRECT_JUMP	ACCESS:    1540695  HIT:    1540692  MISS:          3
BTB BRANCH_INDIRECT	ACCESS:          0  HIT:          0  MISS:          0
BTB BRANCH_CONDITIONAL	ACCESS:   10833488  HIT:   10833477  MISS:         11
BTB BRANCH_DIRECT_CALL	ACCESS:          0  HIT:          0  MISS:          0
BTB BRANCH_INDIRECT_CALL	ACCESS:          0  HIT:          0  MISS:          0
BTB BRANCH_RETURN	ACCESS:          0  HIT:          0  MISS:          0
BTB BRANCH_OTHER ACCESS:          0  HIT:          0  MISS:          0

L2C TOTAL     ACCESS:    3917984  HIT:    1486888  MISS:    2431096  HIT %:    37.9503  MISS %:    62.0497   MPKI: 48.6219
L2C LOAD      ACCESS:    1156186  HIT:     133787  MISS:    1022399  HIT %:    11.5714  MISS %:    88.4286   MPKI: 20.448
L2C DATA LOAD MPKI: 20.448
L2C INSTRUCTION LOAD MPKI: 0
L2C PREFETCH  ACCESS:    1451508  HIT:     329802  MISS:    1121706  HIT %:    22.7213  MISS %:    77.2787   MPKI: 22.4341
L2C DATA PREFETCH MPKI: 22.4341
L2C INSTRUCTION PREFETCH MPKI: 0
L2C WRITEBACK ACCESS:     228955  HIT:     228951  MISS:          4  HIT %:    99.9983  MISS %: 0.00174707   MPKI: 8e-05
L2C LOAD TRANSLATION ACCESS:    1081285  HIT:     794300  MISS:     286985  HIT %:    73.4589  MISS %:    26.5411   MPKI: 5.7397
L2C TRANSLATION FROM L1D PREFETCHER ACCESS:         50  HIT:         48  MISS:          2  HIT %:         96  MISS %:          4   MPKI: 4e-05
L2C PREFETCH  REQUESTED:     216455  ISSUED:     216454  USEFUL:      40616  USELESS:    1081032
L2C USEFUL LOAD PREFETCHES:      40616 PREFETCH ISSUED TO LOWER LEVEL:    1121715  ACCURACY: 3.62088
L2C TIMELY PREFETCHES:      40616 LATE PREFETCHES: 10 DROPPED PREFETCHES: 0
L2C PREFETCHES SAME FILL-ORIGIN LEVEL: 63500 DIFFERENT FILL-ORIGIN LEVEL: 0
L2C AVERAGE MISS LATENCY: 179.01 cycles
L2C RQ	ACCESS:    2237520	FORWARD:          0	MERGED:          0	TO_CACHE:    2237520
L2C WQ	ACCESS:     228955	FORWARD:          0	MERGED:          0	TO_CACHE:     228955
L2C PQ	ACCESS:    1464691	FORWARD:          0	MERGED:      12947	TO_CACHE:    1451744

L2C Instructions Evicting Data 0
L2C Translations Evicting Data 249570
L2C Data Evicting Data 1894532
L2C Instructions Evicting Instructions 0
L2C Translations Evicting Instructions 0
L2C Data Evicting Instructions 0
L2C Instructions Evicting Translations 0
L2C Translations Evicting Translations 37417
L2C Data Evicting Translations 249573
L2C Dense regions hint from L2: 0
PSCL5 TOTAL     ACCESS:     682169  HIT:     682169  MISS:          0  HIT %:        100  MISS %:          0   MPKI: 0
PSCL5 LOAD TRANSLATION ACCESS:     682142  HIT:     682142  MISS:          0  HIT %:        100  MISS %:          0   MPKI: 0
PSCL5 TRANSLATION FROM L1D PREFETCHER ACCESS:         27  HIT:         27  MISS:          0  HIT %:        100  MISS %:          0   MPKI: 0
PSCL5 PREFETCH  REQUESTED:          0  ISSUED:          0  USEFUL:          0  USELESS:          0
PSCL5 USEFUL LOAD PREFETCHES:          0 PREFETCH ISSUED TO LOWER LEVEL:          0  ACCURACY: -nan
PSCL5 TIMELY PREFETCHES:          0 LATE PREFETCHES: 0 DROPPED PREFETCHES: 0
PSCL5 PREFETCHES SAME FILL-ORIGIN LEVEL: 0 DIFFERENT FILL-ORIGIN LEVEL: 0

PSCL4 TOTAL     ACCESS:     682169  HIT:     682169  MISS:          0  HIT %:        100  MISS %:          0   MPKI: 0
PSCL4 LOAD TRANSLATION ACCESS:     682142  HIT:     682142  MISS:          0  HIT %:        100  MISS %:          0   MPKI: 0
PSCL4 TRANSLATION FROM L1D PREFETCHER ACCESS:         27  HIT:         27  MISS:          0  HIT %:        100  MISS %:          0   MPKI: 0
PSCL4 PREFETCH  REQUESTED:          0  ISSUED:          0  USEFUL:          0  USELESS:          0
PSCL4 USEFUL LOAD PREFETCHES:          0 PREFETCH ISSUED TO LOWER LEVEL:          0  ACCURACY: -nan
PSCL4 TIMELY PREFETCHES:          0 LATE PREFETCHES: 0 DROPPED PREFETCHES: 0
PSCL4 PREFETCHES SAME FILL-ORIGIN LEVEL: 0 DIFFERENT FILL-ORIGIN LEVEL: 0

PSCL3 TOTAL     ACCESS:     682169  HIT:     682169  MISS:          0  HIT %:        100  MISS %:          0   MPKI: 0
PSCL3 LOAD TRANSLATION ACCESS:     682142  HIT:     682142  MISS:          0  HIT %:        100  MISS %:          0   MPKI: 0
PSCL3 TRANSLATION FROM L1D PREFETCHER ACCESS:         27  HIT:         27  MISS:          0  HIT %:        100  MISS %:          0   MPKI: 0
PSCL3 PREFETCH  REQUESTED:          0  ISSUED:          0  USEFUL:          0  USELESS:          0
PSCL3 USEFUL LOAD PREFETCHES:          0 PREFETCH ISSUED TO LOWER LEVEL:          0  ACCURACY: -nan
PSCL3 TIMELY PREFETCHES:          0 LATE PREFETCHES: 0 DROPPED PREFETCHES: 0
PSCL3 PREFETCHES SAME FILL-ORIGIN LEVEL: 0 DIFFERENT FILL-ORIGIN LEVEL: 0

PSCL2 TOTAL     ACCESS:     682169  HIT:     283000  MISS:     399169  HIT %:    41.4853  MISS %:    58.5147   MPKI: 7.98338
PSCL2 LOAD TRANSLATION ACCESS:     682165  HIT:     282996  MISS:     399169  HIT %:     41.485  MISS %:     58.515   MPKI: 7.98338
PSCL2 TRANSLATION FROM L1D PREFETCHER ACCESS:          4  HIT:          4  MISS:          0  HIT %:        100  MISS %:          0   MPKI: 0
PSCL2 PREFETCH  REQUESTED:          0  ISSUED:          0  USEFUL:          0  USELESS:          0
PSCL2 USEFUL LOAD PREFETCHES:          0 PREFETCH ISSUED TO LOWER LEVEL:          0  ACCURACY: -nan
PSCL2 TIMELY PREFETCHES:          0 LATE PREFETCHES: 0 DROPPED PREFETCHES: 0
PSCL2 PREFETCHES SAME FILL-ORIGIN LEVEL: 0 DIFFERENT FILL-ORIGIN LEVEL: 0

LLC TOTAL     ACCESS:    2651327  HIT:     671912  MISS:    1979415  HIT %:    25.3425  MISS %:    74.6575   MPKI: 39.5883
LLC LOAD      ACCESS:    1022389  HIT:     140543  MISS:     881846  HIT %:    13.7465  MISS %:    86.2535   MPKI: 17.6369
LLC PREFETCH  ACCESS:    1121716  HIT:     151474  MISS:     970242  HIT %:    13.5038  MISS %:    86.4962   MPKI: 19.4048
LLC WRITEBACK ACCESS:     220235  HIT:     220212  MISS:         23  HIT %:    99.9896  MISS %:  0.0104434   MPKI: 0.00046
LLC LOAD TRANSLATION ACCESS:     286985  HIT:     159682  MISS:     127303  HIT %:    55.6412  MISS %:    44.3588   MPKI: 2.54606
LLC TRANSLATION FROM L1D PREFETCHER ACCESS:          2  HIT:          1  MISS:          1  HIT %:         50  MISS %:         50   MPKI: 2e-05
LLC PREFETCH  REQUESTED:          0  ISSUED:          0  USEFUL:      50536  USELESS:     919402
LLC USEFUL LOAD PREFETCHES:      50536 PREFETCH ISSUED TO LOWER LEVEL:     970241  ACCURACY: 5.2086
LLC TIMELY PREFETCHES:      50536 LATE PREFETCHES: 0 DROPPED PREFETCHES: 0
LLC PREFETCHES SAME FILL-ORIGIN LEVEL: 0 DIFFERENT FILL-ORIGIN LEVEL: 0
LLC AVERAGE MISS LATENCY: 182.245 cycles
LLC RQ	ACCESS:    1309375	FORWARD:          0	MERGED:          0	TO_CACHE:    1309375
LLC WQ	ACCESS:     220235	FORWARD:          0	MERGED:          0	TO_CACHE:     220235
LLC PQ	ACCESS:    1121715	FORWARD:          0	MERGED:          0	TO_CACHE:    1121715

LLC Dense regions hint to LLC: 0

RAW hits: 693838
Loads Generated: 12426447
Loads sent to L1D: 11732609
Stores Generated: 1046092
Stores sent to L1D: 1046094
Major fault: 0 Minor fault: 84097
Allocated PAGES: 84097

stream: 
stream:times selected: 1902638
stream:pref_filled: 1158018
stream:pref_useful: 34239
stream:pref_late: 729
stream:misses: 358903
stream:misses_by_poll: 0

CS: 
CS:times selected: 336342
CS:pref_filled: 89388
CS:pref_useful: 85091
CS:pref_late: 6
CS:misses: 3217
CS:misses_by_poll: 36

CPLX: 
CPLX:times selected: 1526664
CPLX:pref_filled: 180729
CPLX:pref_useful: 2313
CPLX:pref_late: 22
CPLX:misses: 997212
CPLX:misses_by_poll: 220

NL_L1: 
NL:times selected: 11566
NL:pref_filled: 10107
NL:pref_useful: 506
NL:pref_late: 10
NL:misses: 10563
NL:misses_by_poll: 1

total selections: 3777210
total_filled: 1247603
total_useful: 105823
total_late: 784
total_polluted: 257
total_misses_after_warmup: 1182902
conflicts: 2
Degree Incremented Times: 45682
Degree Decremented Times: 145737

L1 IP Table Write Accesses: 10268255
L1 IP Table Read Accesses: 10268253
L1 RST Write Accesses: 1640229
L1 RST Read Accesses: 3280458
L1 CSPT Write Accesses: 1640229
L1 CSPT Read Accesses: 2961834
L1 RR Filter Tag Write Accesses: 1552160
L1 RR Filter Tag Read Accesses: 73067313
L1 IP Table Tag Write Accesses: 10268255
L1 IP Table Tag Read Accesses: 10268255
L1 RST Tag Write Accesses: 0
L1 RST Tag Read Accesses: 14897421
L1 RR Filter Write Accesses: 0
L1 RR Filter Read Accesses: 2653002
test: 1106452
L2 IP Table Read Accesses: 4794304
L2 IP Table Write Accesses: 3638119
L2 IP Table Tag Read Accesses: 2397152
L2 IP Table Tag Write Accesses: 2397152

DRAM Statistics
 CHANNEL 0
 RQ ROW_BUFFER_HIT:     129808  ROW_BUFFER_MISS:    1849583
 DBUS_CONGESTED:     847137
 WQ ROW_BUFFER_HIT:      49670  ROW_BUFFER_MISS:     157288  FULL:          0

 AVG_CONGESTED_CYCLE: 7
 All warmup complete: 2
Channel 0 Bank busy for read cycles: 0
Channel 0 Bank busy for write cycles: 0
Channel 0
Rank 0
0banks busy for read cycles: 117115093
0banks busy for write cycles: 148846
1banks busy for read cycles: 54144608
1banks busy for write cycles: 26272217
2banks busy for read cycles: 60148756
2banks busy for write cycles: 6492854
3banks busy for read cycles: 19589236
3banks busy for write cycles: 1164957
4banks busy for read cycles: 8730585
4banks busy for write cycles: 172255
5banks busy for read cycles: 3204725
5banks busy for write cycles: 28297
6banks busy for read cycles: 848618
6banks busy for write cycles: 4218
7banks busy for read cycles: 178010
7banks busy for write cycles: 859
8banks busy for read cycles: 27413
8banks busy for write cycles: 0

CPU 0 Branch Prediction Accuracy: 93.3417% MPKI: 22.5154 Average ROB Occupancy at Mispredict: 18.9146
Branch types
NOT_BRANCH: 33091986 66.184%
BRANCH_DIRECT_JUMP: 1540695 3.08139%
BRANCH_INDIRECT: 0 0%
BRANCH_CONDITIONAL: 15366958 30.7339%
BRANCH_DIRECT_CALL: 0 0%
BRANCH_INDIRECT_CALL: 0 0%
BRANCH_RETURN: 0 0%
BRANCH_OTHER: 0 0%

@sumon_overall_L1D    105823       637   1141780   1247603   3104320   3104320
@Sumon_Early_by_class_L1D     29210     74252      1922         9
@Sumon_Late_by_class_L1D       593         3        18         9

@Sumon_Early_by_cycle_L1D      5293      6010      4822      2191       964      1014       849      3077      9811     59299      8744      3749
@Sumon_Late_by_cycle_L1D       492       142         3         0         0         0         0         0         0         0         0         0
@Sumon_Early_stream_L1D      5046      5718      4545      1980       869       731       275       742      1636      3580      2610      1478
@Sumon_Early_CS_L1D        26        35        68        83        47       211       541      2243      7997     55314      5731      1956
@Sumon_Early_CPLX_L1D       129       162       127        78        33        57        31        87       164       373       376       305
@Sumon_Late_stream_L1D       453       137         3         0         0         0         0         0         0         0         0         0
@Sumon_Late_CS_L1D         2         1         0         0         0         0         0         0         0         0         0         0
@Sumon_Late_CPLX_L1D        14         4         0         0         0         0         0         0         0         0         0         0
@sumon_overall_L2C     40616        10   1081032   1121708    216454    216455
@Sumon_Early_by_class_L2C     34528      1337      4417         0
@Sumon_Late_by_class_L2C         0         9         0         0

@Sumon_Early_by_cycle_L2C         9        31        32        17        13        36        40       105       181      1073      3123     35956
@Sumon_Late_by_cycle_L2C         6         4         0         0         0         0         0         0         0         0         0         0
@Sumon_Early_stream_L2C         0         0         0         0         0         0         0         0        19       755      2685     31069
@Sumon_Early_CS_L2C         9        31        32        17        13        36        40       105       161       266       195       432
@Sumon_Early_CPLX_L2C         0         0         0         0         0         0         0         0         1        47       214      4155
@Sumon_Late_stream_L2C         0         0         0         0         0         0         0         0         0         0         0         0
@Sumon_Late_CS_L2C         5         4         0         0         0         0         0         0         0         0         0         0
@Sumon_Late_CPLX_L2C         0         0         0         0         0         0         0         0         0         0         0         0
DRAM PAGES: 1048576
Allocated PAGES: 84097
