Initialize SIGNATURE TABLE
ST_SET: 1
ST_WAY: 256
ST_TAG_BIT: 16
ST_TAG_MASK: ffff

Initialize PATTERN TABLE
PT_SET: 512
PT_WAY: 4
SIG_DELTA_BIT: 7
C_SIG_BIT: 4
C_DELTA_BIT: 4

Initialize PREFETCH FILTER
FILTER_SET: 1024

*** ChampSim Multicore Out-of-Order Simulator ***

Warmup Instructions: 10000000
Simulation Instructions: 50000000
Number of CPUs: 1
LLC sets: 2048
LLC ways: 16
Off-chip DRAM Size: 4096 MB Channels: 1 Width: 64-bit Data Rate: 6400 MT/s
CPU 0 runs traces/SPEC2017/605.mcf_s-782B.champsimtrace.xz
.xz
CPU 0 Bimodal branch predictor
BTB has LRU replacement policy
ITLB has LRU replacement policy
DTLB has LRU replacement policy
STLB has LRU replacement policy
L1I has LRU replacement policy
L1D has LRU replacement policy
ST_WAYS: 256
PT_SETS: 512
L2C has LRU replacement policy
Initialize Hawkeye state
Heartbeat CPU 0 instructions: 10000001 cycles: 3736191 heartbeat IPC: 2.67652 cumulative IPC: 2.67652 (Simulation time: 0 hr 9 min 42 sec) 

Warmup complete CPU 0 instructions: 10000001 cycles: 3736191 (Simulation time: 0 hr 9 min 42 sec) 

Heartbeat CPU 0 instructions: 20000000 cycles: 52251694 heartbeat IPC: 0.20612 cumulative IPC: 0.20612 (Simulation time: 0 hr 25 min 49 sec) 
Heartbeat CPU 0 instructions: 30000001 cycles: 106644281 heartbeat IPC: 0.183849 cumulative IPC: 0.194348 (Simulation time: 0 hr 42 min 28 sec) 
Heartbeat CPU 0 instructions: 40000001 cycles: 159847890 heartbeat IPC: 0.187957 cumulative IPC: 0.19217 (Simulation time: 0 hr 56 min 17 sec) 
Heartbeat CPU 0 instructions: 50000000 cycles: 215349964 heartbeat IPC: 0.180173 cumulative IPC: 0.189024 (Simulation time: 1 hr 3 min 31 sec) 
Heartbeat CPU 0 instructions: 60000003 cycles: 265478306 heartbeat IPC: 0.199488 cumulative IPC: 0.191028 (Simulation time: 1 hr 7 min 18 sec) 
Finished CPU 0 instructions: 50000002 cycles: 261742115 cumulative IPC: 0.191028 (Simulation time: 1 hr 7 min 18 sec) 

ChampSim completed all CPUs

Region of Interest Statistics

CPU 0 cumulative IPC: 0.191028 instructions: 50000002 cycles: 261742115
ITLB TOTAL     ACCESS:    8080169  HIT:    8080169  MISS:          0  HIT %:        100  MISS %:          0   MPKI: 0
ITLB LOAD TRANSLATION ACCESS:    8080169  HIT:    8080169  MISS:          0  HIT %:        100  MISS %:          0   MPKI: 0
ITLB PREFETCH  REQUESTED:          0  ISSUED:          0  USEFUL:          0  USELESS:          0
ITLB USEFUL LOAD PREFETCHES:          0 PREFETCH ISSUED TO LOWER LEVEL:          0  ACCURACY: -nan
ITLB TIMELY PREFETCHES:          0 LATE PREFETCHES: 0 DROPPED PREFETCHES: 0
ITLB PREFETCHES SAME FILL-ORIGIN LEVEL: 0 DIFFERENT FILL-ORIGIN LEVEL: 0
ITLB AVERAGE MISS LATENCY: -nan cycles
ITLB RQ	ACCESS:    8193333	FORWARD:          0	MERGED:     113164	TO_CACHE:    8080169

ITLB_Dead_block_count 0 0
ITLB_inaccurate_prefetch_count 0 0
Interactions: positive negative neutral
ITLB_interactions 0 0 0
ITLB_positive 0 0 0
ITLB_negative 0 0 0
ITLB_neutral 0 0 0 0 0 0
DTLB TOTAL     ACCESS:   10591900  HIT:    6264490  MISS:    4327410  HIT %:    59.1442  MISS %:    40.8558   MPKI: 86.5482
DTLB LOAD TRANSLATION ACCESS:   10591900  HIT:    6264490  MISS:    4327410  HIT %:    59.1442  MISS %:    40.8558   MPKI: 86.5482
DTLB PREFETCH  REQUESTED:          0  ISSUED:          0  USEFUL:          0  USELESS:          0
DTLB USEFUL LOAD PREFETCHES:          0 PREFETCH ISSUED TO LOWER LEVEL:          0  ACCURACY: -nan
DTLB TIMELY PREFETCHES:          0 LATE PREFETCHES: 0 DROPPED PREFETCHES: 0
DTLB PREFETCHES SAME FILL-ORIGIN LEVEL: 0 DIFFERENT FILL-ORIGIN LEVEL: 0
DTLB AVERAGE MISS LATENCY: 10.869 cycles
DTLB RQ	ACCESS:   11725679	FORWARD:          0	MERGED:    1062233	TO_CACHE:   10663446

DTLB_Dead_block_count 4327405 4
DTLB_inaccurate_prefetch_count 0 0
Interactions: positive negative neutral
DTLB_interactions 0 0 0
DTLB_positive 0 0 0
DTLB_negative 0 0 0
DTLB_neutral 0 0 0 0 0 0
STLB TOTAL     ACCESS:    4327409  HIT:    4270675  MISS:      56734  HIT %:     98.689  MISS %:    1.31104   MPKI: 1.13468
STLB LOAD TRANSLATION ACCESS:    4327409  HIT:    4270675  MISS:      56734  HIT %:     98.689  MISS %:    1.31104   MPKI: 1.13468
STLB PREFETCH  REQUESTED:          0  ISSUED:          0  USEFUL:          0  USELESS:          0
STLB USEFUL LOAD PREFETCHES:          0 PREFETCH ISSUED TO LOWER LEVEL:          0  ACCURACY: -nan
STLB TIMELY PREFETCHES:          0 LATE PREFETCHES: 0 DROPPED PREFETCHES: 0
STLB PREFETCHES SAME FILL-ORIGIN LEVEL: 0 DIFFERENT FILL-ORIGIN LEVEL: 0
STLB AVERAGE MISS LATENCY: 128.837 cycles
STLB RQ	ACCESS:    4327409	FORWARD:          0	MERGED:          0	TO_CACHE:    4327409

STLB_Dead_block_count 56730 4
STLB_inaccurate_prefetch_count 0 0
Interactions: positive negative neutral
STLB_interactions 0 0 0
STLB_positive 0 0 0
STLB_negative 0 0 0
STLB_neutral 0 0 0 0 0 0
STLB Hit, L1D data hit: 0
STLB Hit, L2C data hit: 0
STLB Hit, LLC data hit: 0
STLB Hit, LLC data miss: 0
STLB STLB hints to L2: 0
L1D TOTAL     ACCESS:   11333967  HIT:    3753407  MISS:    7580560  HIT %:    33.1164  MISS %:    66.8836   MPKI: 151.611
L1D LOAD      ACCESS:   10385973  HIT:    2822811  MISS:    7563162  HIT %:    27.1791  MISS %:    72.8209   MPKI: 151.263
L1D RFO       ACCESS:     947994  HIT:     930596  MISS:      17398  HIT %:    98.1648  MISS %:    1.83524   MPKI: 0.34796
L1D PREFETCH  REQUESTED:          0  ISSUED:          0  USEFUL:          0  USELESS:          0
L1D USEFUL LOAD PREFETCHES:          0 PREFETCH ISSUED TO LOWER LEVEL:          0  ACCURACY: -nan
L1D TIMELY PREFETCHES:          0 LATE PREFETCHES: 0 DROPPED PREFETCHES: 0
L1D PREFETCHES SAME FILL-ORIGIN LEVEL: 0 DIFFERENT FILL-ORIGIN LEVEL: 0
L1D AVERAGE MISS LATENCY: 70.2516 cycles
L1D RQ	ACCESS:   17869558	FORWARD:          0	MERGED:    6986120	TO_CACHE:   10736146
L1D WQ	ACCESS:    1026019	FORWARD:     147292	MERGED:      36486	TO_CACHE:     989533

L1D_Dead_block_count 6844772 718388
L1D_inaccurate_prefetch_count 0 0
Interactions: positive negative neutral
L1D_interactions 0 0 0
L1D_positive 0 0 0
L1D_negative 0 0 0
L1D_neutral 0 0 0 0 0 0
L1D UNIQUE REGIONS ACCESSED: 0
L1D REGIONS CONFLICTS: 0
L1D Cross Page Prefetch Requests: 0
L1D Same Page Prefetch Requests: 0
L1D ROI Sum of L1D PQ occupancy: 0
L1D PREFETCHES PUSHED FROM L2C: 0
L1I TOTAL     ACCESS:    8193333  HIT:    8193333  MISS:          0  HIT %:        100  MISS %:          0   MPKI: 0
L1I LOAD      ACCESS:    8193333  HIT:    8193333  MISS:          0  HIT %:        100  MISS %:          0   MPKI: 0
L1I PREFETCH  REQUESTED:          0  ISSUED:          0  USEFUL:          0  USELESS:          0
L1I USEFUL LOAD PREFETCHES:          0 PREFETCH ISSUED TO LOWER LEVEL:          0  ACCURACY: -nan
L1I TIMELY PREFETCHES:          0 LATE PREFETCHES: 0 DROPPED PREFETCHES: 0
L1I PREFETCHES SAME FILL-ORIGIN LEVEL: 0 DIFFERENT FILL-ORIGIN LEVEL: 0
L1I AVERAGE MISS LATENCY: -nan cycles
L1I RQ	ACCESS:   11074699	FORWARD:          0	MERGED:    2881366	TO_CACHE:    8193333

L1I_Dead_block_count 0 0
L1I_inaccurate_prefetch_count 0 0
Interactions: positive negative neutral
L1I_interactions 0 0 0
L1I_positive 0 0 0
L1I_negative 0 0 0
L1I_neutral 0 0 0 0 0 0
BTB TOTAL     ACCESS:   14274117  HIT:   14220061  MISS:      54056  HIT %:    99.6213  MISS %:   0.378699   MPKI: 1.08112
BTB BRANCH_DIRECT_JUMP	ACCESS:    1888246  HIT:    1888209  MISS:         37
BTB BRANCH_INDIRECT	ACCESS:          0  HIT:          0  MISS:          0
BTB BRANCH_CONDITIONAL	ACCESS:   11987047  HIT:   11986967  MISS:         80
BTB BRANCH_DIRECT_CALL	ACCESS:     184334  HIT:     184317  MISS:         17
BTB BRANCH_INDIRECT_CALL	ACCESS:      15078  HIT:      15070  MISS:          8
BTB BRANCH_RETURN	ACCESS:     199412  HIT:     145498  MISS:      53914
BTB BRANCH_OTHER ACCESS:          0  HIT:          0  MISS:          0

L2C TOTAL     ACCESS:    8182579  HIT:    1336571  MISS:    6846008  HIT %:    16.3343  MISS %:    83.6657   MPKI: 136.92
L2C LOAD      ACCESS:    7563152  HIT:    1034718  MISS:    6528434  HIT %:     13.681  MISS %:     86.319   MPKI: 130.569
L2C DATA LOAD MPKI: 130.569
L2C INSTRUCTION LOAD MPKI: 0
L2C RFO       ACCESS:      17398  HIT:       2174  MISS:      15224  HIT %:    12.4957  MISS %:    87.5043   MPKI: 0.30448
L2C PREFETCH  ACCESS:     396627  HIT:     112271  MISS:     284356  HIT %:    28.3064  MISS %:    71.6936   MPKI: 5.68712
L2C DATA PREFETCH MPKI: 5.68712
L2C INSTRUCTION PREFETCH MPKI: 0
L2C WRITEBACK ACCESS:     148260  HIT:     148260  MISS:          0  HIT %:        100  MISS %:          0   MPKI: 0
L2C LOAD TRANSLATION ACCESS:      57142  HIT:      39148  MISS:      17994  HIT %:      68.51  MISS %:      31.49   MPKI: 0.35988
L2C PREFETCH  REQUESTED:   12112956  ISSUED:   12112403  USEFUL:     227206  USELESS:      57127
L2C USEFUL LOAD PREFETCHES:     227206 PREFETCH ISSUED TO LOWER LEVEL:    8158307  ACCURACY: 2.78497
L2C TIMELY PREFETCHES:     227206 LATE PREFETCHES: 398070 DROPPED PREFETCHES: 0
L2C PREFETCHES SAME FILL-ORIGIN LEVEL: 682426 DIFFERENT FILL-ORIGIN LEVEL: 7475881
L2C AVERAGE MISS LATENCY: 64.4888 cycles
L2C RQ	ACCESS:    7637700	FORWARD:          0	MERGED:          0	TO_CACHE:    7637691
L2C WQ	ACCESS:     148260	FORWARD:          9	MERGED:          0	TO_CACHE:     148260
L2C PQ	ACCESS:   12112403	FORWARD:          0	MERGED:    2976454	TO_CACHE:    9135949

L2C_Dead_block_count 5128144 1035436
L2C_inaccurate_prefetch_count 12303 8146004
Interactions: positive negative neutral
L2C_interactions 272947 50987 12442
L2C_positive 272946 0 1
L2C_negative 0 50986 1
L2C_neutral 6183 994 120 40 0 5105
L2C Instructions Evicting Data 0
L2C Translations Evicting Data 17930
L2C Data Evicting Data 6810086
L2C Instructions Evicting Instructions 0
L2C Translations Evicting Instructions 0
L2C Data Evicting Instructions 0
L2C Instructions Evicting Translations 0
L2C Translations Evicting Translations 64
L2C Data Evicting Translations 17928
L2C Dense regions hint from L2: 0
PSCL5 TOTAL     ACCESS:      56734  HIT:      56734  MISS:          0  HIT %:        100  MISS %:          0   MPKI: 0
PSCL5 LOAD TRANSLATION ACCESS:      56734  HIT:      56734  MISS:          0  HIT %:        100  MISS %:          0   MPKI: 0
PSCL5 PREFETCH  REQUESTED:          0  ISSUED:          0  USEFUL:          0  USELESS:          0
PSCL5 USEFUL LOAD PREFETCHES:          0 PREFETCH ISSUED TO LOWER LEVEL:          0  ACCURACY: -nan
PSCL5 TIMELY PREFETCHES:          0 LATE PREFETCHES: 0 DROPPED PREFETCHES: 0
PSCL5 PREFETCHES SAME FILL-ORIGIN LEVEL: 0 DIFFERENT FILL-ORIGIN LEVEL: 0

PSCL5_Dead_block_count 0 0
PSCL5_inaccurate_prefetch_count 0 0
Interactions: positive negative neutral
PSCL5_interactions 0 0 0
PSCL5_positive 0 0 0
PSCL5_negative 0 0 0
PSCL5_neutral 0 0 0 0 0 0
PSCL4 TOTAL     ACCESS:      56734  HIT:      56734  MISS:          0  HIT %:        100  MISS %:          0   MPKI: 0
PSCL4 LOAD TRANSLATION ACCESS:      56734  HIT:      56734  MISS:          0  HIT %:        100  MISS %:          0   MPKI: 0
PSCL4 PREFETCH  REQUESTED:          0  ISSUED:          0  USEFUL:          0  USELESS:          0
PSCL4 USEFUL LOAD PREFETCHES:          0 PREFETCH ISSUED TO LOWER LEVEL:          0  ACCURACY: -nan
PSCL4 TIMELY PREFETCHES:          0 LATE PREFETCHES: 0 DROPPED PREFETCHES: 0
PSCL4 PREFETCHES SAME FILL-ORIGIN LEVEL: 0 DIFFERENT FILL-ORIGIN LEVEL: 0

PSCL4_Dead_block_count 0 0
PSCL4_inaccurate_prefetch_count 0 0
Interactions: positive negative neutral
PSCL4_interactions 0 0 0
PSCL4_positive 0 0 0
PSCL4_negative 0 0 0
PSCL4_neutral 0 0 0 0 0 0
PSCL3 TOTAL     ACCESS:      56734  HIT:      56734  MISS:          0  HIT %:        100  MISS %:          0   MPKI: 0
PSCL3 LOAD TRANSLATION ACCESS:      56734  HIT:      56734  MISS:          0  HIT %:        100  MISS %:          0   MPKI: 0
PSCL3 PREFETCH  REQUESTED:          0  ISSUED:          0  USEFUL:          0  USELESS:          0
PSCL3 USEFUL LOAD PREFETCHES:          0 PREFETCH ISSUED TO LOWER LEVEL:          0  ACCURACY: -nan
PSCL3 TIMELY PREFETCHES:          0 LATE PREFETCHES: 0 DROPPED PREFETCHES: 0
PSCL3 PREFETCHES SAME FILL-ORIGIN LEVEL: 0 DIFFERENT FILL-ORIGIN LEVEL: 0

PSCL3_Dead_block_count 0 0
PSCL3_inaccurate_prefetch_count 0 0
Interactions: positive negative neutral
PSCL3_interactions 0 0 0
PSCL3_positive 0 0 0
PSCL3_negative 0 0 0
PSCL3_neutral 0 0 0 0 0 0
PSCL2 TOTAL     ACCESS:      56734  HIT:      56040  MISS:        694  HIT %:    98.7767  MISS %:    1.22325   MPKI: 0.01388
PSCL2 LOAD TRANSLATION ACCESS:      56734  HIT:      56040  MISS:        694  HIT %:    98.7767  MISS %:    1.22325   MPKI: 0.01388
PSCL2 PREFETCH  REQUESTED:          0  ISSUED:          0  USEFUL:          0  USELESS:          0
PSCL2 USEFUL LOAD PREFETCHES:          0 PREFETCH ISSUED TO LOWER LEVEL:          0  ACCURACY: -nan
PSCL2 TIMELY PREFETCHES:          0 LATE PREFETCHES: 0 DROPPED PREFETCHES: 0
PSCL2 PREFETCHES SAME FILL-ORIGIN LEVEL: 0 DIFFERENT FILL-ORIGIN LEVEL: 0

PSCL2_Dead_block_count 0 0
PSCL2_inaccurate_prefetch_count 0 0
Interactions: positive negative neutral
PSCL2_interactions 0 0 0
PSCL2_positive 0 0 0
PSCL2_negative 0 0 0
PSCL2_neutral 0 0 0 0 0 0
LLC TOTAL     ACCESS:   11645499  HIT:    7755510  MISS:    3889989  HIT %:    66.5966  MISS %:    33.4034   MPKI: 77.7998
LLC LOAD      ACCESS:    6130363  HIT:    4611558  MISS:    1518805  HIT %:    75.2249  MISS %:    24.7751   MPKI: 30.3761
LLC RFO       ACCESS:      15224  HIT:      13598  MISS:       1626  HIT %:    89.3195  MISS %:    10.6805   MPKI: 0.03252
LLC PREFETCH  ACCESS:    5343361  HIT:    3013928  MISS:    2329433  HIT %:    56.4051  MISS %:    43.5949   MPKI: 46.5887
LLC WRITEBACK ACCESS:     138557  HIT:     107171  MISS:      31386  HIT %:     77.348  MISS %:     22.652   MPKI: 0.62772
LLC LOAD TRANSLATION ACCESS:      17994  HIT:       9255  MISS:       8739  HIT %:    51.4338  MISS %:    48.5662   MPKI: 0.17478
LLC PREFETCH  REQUESTED:          0  ISSUED:          0  USEFUL:    1322889  USELESS:    1003559
LLC USEFUL LOAD PREFETCHES:    1322889 PREFETCH ISSUED TO LOWER LEVEL:    2798190  ACCURACY: 47.2766
LLC TIMELY PREFETCHES:    1322889 LATE PREFETCHES: 468757 DROPPED PREFETCHES: 0
LLC PREFETCHES SAME FILL-ORIGIN LEVEL: 2707989 DIFFERENT FILL-ORIGIN LEVEL: 0
LLC AVERAGE MISS LATENCY: 130.898 cycles
LLC RQ	ACCESS:    6163580	FORWARD:          0	MERGED:          0	TO_CACHE:    6163580
LLC WQ	ACCESS:     138557	FORWARD:          0	MERGED:          0	TO_CACHE:     138557
LLC PQ	ACCESS:    8158307	FORWARD:          0	MERGED:     643340	TO_CACHE:    7514967

LLC_Dead_block_count 34092 1026321
LLC_inaccurate_prefetch_count 68440 2729750
Interactions: positive negative neutral
LLC_interactions 1640153 368439 686787
LLC_positive 1612547 146 27460
LLC_negative 2307 346648 19484
LLC_neutral 31573 3002 46570 16150 1471 588021
LLC Dense regions hint to LLC: 0

RAW hits: 134437
Loads Generated: 18003994
Loads sent to L1D: 17869558
Stores Generated: 1026019
Stores sent to L1D: 1026019
Major fault: 0 Minor fault: 52663
Allocated PAGES: 52663
 All Calls: 8993936
 Critical Calls: 8993936
------------------
Depth Distribution
------------------
depth 0: 0
depth 1: 4003681
depth 2: 3274720
depth 3: 2814485
depth 4: 2029945
depth 5: 1204154
depth 6: 423843
depth 7: 51380
depth 8: 4465
depth 9: 3
depth 10: 0
depth 11: 0
depth 12: 0
depth 13: 0
depth 14: 0
depth 15: 0
depth 16: 0
depth 17: 0
depth 18: 0
depth 19: 0
depth 20: 0
depth 21: 0
depth 22: 0
depth 23: 0
depth 24: 0
depth 25: 0
depth 26: 0
depth 27: 0
depth 28: 0
depth 29: 0
Total: 13806676
-----------------------------
-----------------------------
	Captured at Filter
-----------------------------
depth 0: 0
depth 1: 44238
depth 2: 7646
depth 3: 6425
depth 4: 4629
depth 5: 2749
depth 6: 968
depth 7: 133
depth 8: 9
depth 9: 0
depth 10: 0
depth 11: 0
depth 12: 0
depth 13: 0
depth 14: 0
depth 15: 0
depth 16: 0
depth 17: 0
depth 18: 0
depth 19: 0
depth 20: 0
depth 21: 0
depth 22: 0
depth 23: 0
depth 24: 0
depth 25: 0
depth 26: 0
depth 27: 0
depth 28: 0
depth 29: 0
-----------------------------
-----------------------------
		Lost at Page
-----------------------------
depth 0: 0
depth 1: 148165
depth 2: 105028
depth 3: 135373
depth 4: 135465
depth 5: 101886
depth 6: 43467
depth 7: 6542
depth 8: 657
depth 9: 0
depth 10: 0
depth 11: 0
depth 12: 0
depth 13: 0
depth 14: 0
depth 15: 0
depth 16: 0
depth 17: 0
depth 18: 0
depth 19: 0
depth 20: 0
depth 21: 0
depth 22: 0
depth 23: 0
depth 24: 0
depth 25: 0
depth 26: 0
depth 27: 0
depth 28: 0
depth 29: 0
-----------------------------
-----------------------------
	Lost due to PQ Size
-----------------------------
176110
-----------------------------
ST read accesses: 4412824
ST write accesses: 3150326
PT read accesses: 104058003
PT write accesses: 5415924
FILTER read accesses: 26584171
FILTER write accesses: 8915953
GHR read accesses: 28713816
GHR write accesses: 604786
GHR counter read accesses: 96368284
GHR counter write accesses: 9610225
ST tag read accesses: 4521784148
ST tag write accesses: 975189161

DRAM Statistics
 CHANNEL 0
 RQ ROW_BUFFER_HIT:    1841455  ROW_BUFFER_MISS:    2017108
 DBUS_CONGESTED:        953
 WQ ROW_BUFFER_HIT:      15420  ROW_BUFFER_MISS:      41948  FULL:          0

 AVG_CONGESTED_CYCLE: 5
 All warmup complete: 2
Channel 0 Bank busy for read cycles: 0
Channel 0 Bank busy for write cycles: 0
Channel 0
Rank 0
0banks busy for read cycles: 95260640
0banks busy for write cycles: 24746
1banks busy for read cycles: 63301787
1banks busy for write cycles: 5072715
2banks busy for read cycles: 35608020
2banks busy for write cycles: 1097130
3banks busy for read cycles: 22873465
3banks busy for write cycles: 372129
4banks busy for read cycles: 15540142
4banks busy for write cycles: 153768
5banks busy for read cycles: 10125733
5banks busy for write cycles: 78999
6banks busy for read cycles: 5922189
6banks busy for write cycles: 68327
7banks busy for read cycles: 3203419
7banks busy for write cycles: 107144
8banks busy for read cycles: 2604766
8banks busy for write cycles: 326997

CPU 0 Branch Prediction Accuracy: 96.3481% MPKI: 11.0798 Average ROB Occupancy at Mispredict: 45.4585
Branch types
NOT_BRANCH: 34829909 69.6598%
BRANCH_DIRECT_JUMP: 1888246 3.77649%
BRANCH_INDIRECT: 0 0%
BRANCH_CONDITIONAL: 12882823 25.7656%
BRANCH_DIRECT_CALL: 184334 0.368668%
BRANCH_INDIRECT_CALL: 15078 0.030156%
BRANCH_RETURN: 199412 0.398824%
BRANCH_OTHER: 0 0%

@sumon_overall_L1D         0         0         0         0         0         0         0
@Sumon_Early_by_class_L1D         0         0         0         0
@Sumon_Late_by_class_L1D         0         0         0         0

@Sumon_Early_by_cycle_L1D         0         0         0         0         0         0         0         0         0         0         0         0
@Sumon_Late_by_cycle_L1D         0         0         0         0         0         0
@Sumon_Early_stream_L1D         0         0         0         0         0         0         0         0         0         0         0         0
@Sumon_Early_CS_L1D         0         0         0         0         0         0         0         0         0         0         0         0
@Sumon_Early_CPLX_L1D         0         0         0         0         0         0         0         0         0         0         0         0
@Sumon_Late_stream_L1D         0         0         0         0         0         0
@Sumon_Late_CS_L1D         0         0         0         0         0         0
@Sumon_Late_CPLX_L1D         0         0         0         0         0         0
@sumon_overall_L2C    227206    398070         0     57127    284356  12112403  12112956
@Sumon_Early_by_class_L2C         0         0         0         0
@Sumon_Late_by_class_L2C         0         0         0         0

@Sumon_Early_by_cycle_L2C     33749     96819     88307      5874       171        31        54        37       100       510       572       982
@Sumon_Late_by_cycle_L2C     19299    230109     32661     56137     59837        27
@Sumon_Early_stream_L2C         0         0         0         0         0         0         0         0         0         0         0         0
@Sumon_Early_CS_L2C         0         0         0         0         0         0         0         0         0         0         0         0
@Sumon_Early_CPLX_L2C         0         0         0         0         0         0         0         0         0         0         0         0
@Sumon_Late_stream_L2C         0         0         0         0         0         0
@Sumon_Late_CS_L2C         0         0         0         0         0         0
@Sumon_Late_CPLX_L2C         0         0         0         0         0         0
DRAM PAGES: 1048576
Allocated PAGES: 52663
