Initialize SIGNATURE TABLE
ST_SET: 1
ST_WAY: 256
ST_TAG_BIT: 16
ST_TAG_MASK: ffff

Initialize PATTERN TABLE
PT_SET: 512
PT_WAY: 4
SIG_DELTA_BIT: 7
C_SIG_BIT: 4
C_DELTA_BIT: 4

Initialize PREFETCH FILTER
FILTER_SET: 1024

*** ChampSim Multicore Out-of-Order Simulator ***

Warmup Instructions: 10000000
Simulation Instructions: 50000000
Number of CPUs: 1
LLC sets: 2048
LLC ways: 16
Off-chip DRAM Size: 4096 MB Channels: 1 Width: 64-bit Data Rate: 6400 MT/s
CPU 0 runs traces/SPEC2017/623.xalancbmk_s-165B.champsimtrace.xz
.xz
CPU 0 Bimodal branch predictor
BTB has LRU replacement policy
ITLB has LRU replacement policy
DTLB has LRU replacement policy
STLB has LRU replacement policy
L1I has LRU replacement policy
L1D has LRU replacement policy
ST_WAYS: 256
PT_SETS: 512
L2C has LRU replacement policy
Initialize Hawkeye state
Heartbeat CPU 0 instructions: 10000000 cycles: 2866434 heartbeat IPC: 3.48866 cumulative IPC: 3.48866 (Simulation time: 0 hr 6 min 36 sec) 

Warmup complete CPU 0 instructions: 10000002 cycles: 2866436 (Simulation time: 0 hr 6 min 36 sec) 

Heartbeat CPU 0 instructions: 20000001 cycles: 21411352 heartbeat IPC: 0.539231 cumulative IPC: 0.539231 (Simulation time: 0 hr 14 min 59 sec) 
Heartbeat CPU 0 instructions: 30000000 cycles: 39939919 heartbeat IPC: 0.539707 cumulative IPC: 0.539469 (Simulation time: 0 hr 23 min 35 sec) 
Heartbeat CPU 0 instructions: 40000000 cycles: 58347551 heartbeat IPC: 0.543253 cumulative IPC: 0.540725 (Simulation time: 0 hr 31 min 56 sec) 
Heartbeat CPU 0 instructions: 50000001 cycles: 76923110 heartbeat IPC: 0.538342 cumulative IPC: 0.540127 (Simulation time: 0 hr 40 min 19 sec) 
Heartbeat CPU 0 instructions: 60000000 cycles: 95493581 heartbeat IPC: 0.538489 cumulative IPC: 0.539799 (Simulation time: 0 hr 48 min 36 sec) 
Finished CPU 0 instructions: 50000002 cycles: 92627174 cumulative IPC: 0.539798 (Simulation time: 0 hr 48 min 36 sec) 

ChampSim completed all CPUs

Region of Interest Statistics

CPU 0 cumulative IPC: 0.539798 instructions: 50000002 cycles: 92627174
ITLB TOTAL     ACCESS:    7286751  HIT:    7286751  MISS:          0  HIT %:        100  MISS %:          0   MPKI: 0
ITLB LOAD TRANSLATION ACCESS:    7286751  HIT:    7286751  MISS:          0  HIT %:        100  MISS %:          0   MPKI: 0
ITLB PREFETCH  REQUESTED:          0  ISSUED:          0  USEFUL:          0  USELESS:          0
ITLB USEFUL LOAD PREFETCHES:          0 PREFETCH ISSUED TO LOWER LEVEL:          0  ACCURACY: -nan
ITLB TIMELY PREFETCHES:          0 LATE PREFETCHES: 0 DROPPED PREFETCHES: 0
ITLB PREFETCHES SAME FILL-ORIGIN LEVEL: 0 DIFFERENT FILL-ORIGIN LEVEL: 0
ITLB AVERAGE MISS LATENCY: -nan cycles
ITLB RQ	ACCESS:    9258105	FORWARD:          0	MERGED:    1971355	TO_CACHE:    7286750

ITLB_Dead_block_count 0 0
ITLB_inaccurate_prefetch_count 0 0
Interactions: positive negative neutral
ITLB_interactions 0 0 0
ITLB_positive 0 0 0
ITLB_negative 0 0 0
ITLB_neutral 0 0 0 0 0 0
DTLB TOTAL     ACCESS:    7412568  HIT:    7394654  MISS:      17914  HIT %:    99.7583  MISS %:   0.241671   MPKI: 0.35828
DTLB LOAD TRANSLATION ACCESS:    7412568  HIT:    7394654  MISS:      17914  HIT %:    99.7583  MISS %:   0.241671   MPKI: 0.35828
DTLB PREFETCH  REQUESTED:          0  ISSUED:          0  USEFUL:          0  USELESS:          0
DTLB USEFUL LOAD PREFETCHES:          0 PREFETCH ISSUED TO LOWER LEVEL:          0  ACCURACY: -nan
DTLB TIMELY PREFETCHES:          0 LATE PREFETCHES: 0 DROPPED PREFETCHES: 0
DTLB PREFETCHES SAME FILL-ORIGIN LEVEL: 0 DIFFERENT FILL-ORIGIN LEVEL: 0
DTLB AVERAGE MISS LATENCY: 9.79804 cycles
DTLB RQ	ACCESS:    8131897	FORWARD:          0	MERGED:     719291	TO_CACHE:    7412606

DTLB_Dead_block_count 17910 4
DTLB_inaccurate_prefetch_count 0 0
Interactions: positive negative neutral
DTLB_interactions 0 0 0
DTLB_positive 0 0 0
DTLB_negative 0 0 0
DTLB_neutral 0 0 0 0 0 0
STLB TOTAL     ACCESS:      17914  HIT:      17854  MISS:         60  HIT %:    99.6651  MISS %:   0.334934   MPKI: 0.0012
STLB LOAD TRANSLATION ACCESS:      17914  HIT:      17854  MISS:         60  HIT %:    99.6651  MISS %:   0.334934   MPKI: 0.0012
STLB PREFETCH  REQUESTED:          0  ISSUED:          0  USEFUL:          0  USELESS:          0
STLB USEFUL LOAD PREFETCHES:          0 PREFETCH ISSUED TO LOWER LEVEL:          0  ACCURACY: -nan
STLB TIMELY PREFETCHES:          0 LATE PREFETCHES: 0 DROPPED PREFETCHES: 0
STLB PREFETCHES SAME FILL-ORIGIN LEVEL: 0 DIFFERENT FILL-ORIGIN LEVEL: 0
STLB AVERAGE MISS LATENCY: 238.117 cycles
STLB RQ	ACCESS:      17914	FORWARD:          0	MERGED:          0	TO_CACHE:      17914

STLB_Dead_block_count 56 4
STLB_inaccurate_prefetch_count 0 0
Interactions: positive negative neutral
STLB_interactions 0 0 0
STLB_positive 0 0 0
STLB_negative 0 0 0
STLB_neutral 0 0 0 0 0 0
STLB Hit, L1D data hit: 0
STLB Hit, L2C data hit: 0
STLB Hit, LLC data hit: 0
STLB Hit, LLC data miss: 0
STLB STLB hints to L2: 0
L1D TOTAL     ACCESS:    8003920  HIT:    7052727  MISS:     951193  HIT %:    88.1159  MISS %:    11.8841   MPKI: 19.0239
L1D LOAD      ACCESS:    7348235  HIT:    6397322  MISS:     950913  HIT %:    87.0593  MISS %:    12.9407   MPKI: 19.0183
L1D RFO       ACCESS:     655685  HIT:     655405  MISS:        280  HIT %:    99.9573  MISS %:  0.0427034   MPKI: 0.0056
L1D PREFETCH  REQUESTED:          0  ISSUED:          0  USEFUL:          0  USELESS:          0
L1D USEFUL LOAD PREFETCHES:          0 PREFETCH ISSUED TO LOWER LEVEL:          0  ACCURACY: -nan
L1D TIMELY PREFETCHES:          0 LATE PREFETCHES: 0 DROPPED PREFETCHES: 0
L1D PREFETCHES SAME FILL-ORIGIN LEVEL: 0 DIFFERENT FILL-ORIGIN LEVEL: 0
L1D AVERAGE MISS LATENCY: 39.3678 cycles
L1D RQ	ACCESS:   14751940	FORWARD:          0	MERGED:    7276102	TO_CACHE:    7475834
L1D WQ	ACCESS:     656260	FORWARD:          4	MERGED:        197	TO_CACHE:     656063

L1D_Dead_block_count 144 950769
L1D_inaccurate_prefetch_count 0 0
Interactions: positive negative neutral
L1D_interactions 0 0 0
L1D_positive 0 0 0
L1D_negative 0 0 0
L1D_neutral 0 0 0 0 0 0
L1D UNIQUE REGIONS ACCESSED: 0
L1D REGIONS CONFLICTS: 0
L1D Cross Page Prefetch Requests: 0
L1D Same Page Prefetch Requests: 0
L1D ROI Sum of L1D PQ occupancy: 0
L1D PREFETCHES PUSHED FROM L2C: 0
L1I TOTAL     ACCESS:    9258105  HIT:    9258105  MISS:          0  HIT %:        100  MISS %:          0   MPKI: 0
L1I LOAD      ACCESS:    9258105  HIT:    9258105  MISS:          0  HIT %:        100  MISS %:          0   MPKI: 0
L1I PREFETCH  REQUESTED:          0  ISSUED:          0  USEFUL:          0  USELESS:          0
L1I USEFUL LOAD PREFETCHES:          0 PREFETCH ISSUED TO LOWER LEVEL:          0  ACCURACY: -nan
L1I TIMELY PREFETCHES:          0 LATE PREFETCHES: 0 DROPPED PREFETCHES: 0
L1I PREFETCHES SAME FILL-ORIGIN LEVEL: 0 DIFFERENT FILL-ORIGIN LEVEL: 0
L1I AVERAGE MISS LATENCY: -nan cycles
L1I RQ	ACCESS:   18345961	FORWARD:          0	MERGED:    9087856	TO_CACHE:    9258105

L1I_Dead_block_count 0 0
L1I_inaccurate_prefetch_count 0 0
Interactions: positive negative neutral
L1I_interactions 0 0 0
L1I_positive 0 0 0
L1I_negative 0 0 0
L1I_neutral 0 0 0 0 0 0
BTB TOTAL     ACCESS:    8408285  HIT:    8407872  MISS:        413  HIT %:    99.9951  MISS %: 0.00491182   MPKI: 0.00826
BTB BRANCH_DIRECT_JUMP	ACCESS:        432  HIT:        430  MISS:          2
BTB BRANCH_INDIRECT	ACCESS:          0  HIT:          0  MISS:          0
BTB BRANCH_CONDITIONAL	ACCESS:    7758887  HIT:    7758854  MISS:         33
BTB BRANCH_DIRECT_CALL	ACCESS:     162579  HIT:     162566  MISS:         13
BTB BRANCH_INDIRECT_CALL	ACCESS:     161904  HIT:     161898  MISS:          6
BTB BRANCH_RETURN	ACCESS:     324483  HIT:     324124  MISS:        359
BTB BRANCH_OTHER ACCESS:          0  HIT:          0  MISS:          0

L2C TOTAL     ACCESS:    1149655  HIT:     197789  MISS:     951866  HIT %:    17.2042  MISS %:    82.7958   MPKI: 19.0373
L2C LOAD      ACCESS:     950913  HIT:     187956  MISS:     762957  HIT %:    19.7658  MISS %:    80.2342   MPKI: 15.2591
L2C DATA LOAD MPKI: 15.2591
L2C INSTRUCTION LOAD MPKI: 0
L2C RFO       ACCESS:        280  HIT:         10  MISS:        270  HIT %:    3.57143  MISS %:    96.4286   MPKI: 0.0054
L2C PREFETCH  ACCESS:     197990  HIT:       9395  MISS:     188595  HIT %:    4.74519  MISS %:    95.2548   MPKI: 3.7719
L2C DATA PREFETCH MPKI: 3.7719
L2C INSTRUCTION PREFETCH MPKI: 0
L2C WRITEBACK ACCESS:        412  HIT:        412  MISS:          0  HIT %:        100  MISS %:          0   MPKI: 0
L2C LOAD TRANSLATION ACCESS:         60  HIT:         16  MISS:         44  HIT %:    26.6667  MISS %:    73.3333   MPKI: 0.00088
L2C PREFETCH  REQUESTED:    5250754  ISSUED:    5250752  USEFUL:     187720  USELESS:        872
L2C USEFUL LOAD PREFETCHES:     187720 PREFETCH ISSUED TO LOWER LEVEL:    2996739  ACCURACY: 6.26414
L2C TIMELY PREFETCHES:     187720 LATE PREFETCHES: 92384 DROPPED PREFETCHES: 0
L2C PREFETCHES SAME FILL-ORIGIN LEVEL: 280979 DIFFERENT FILL-ORIGIN LEVEL: 2715760
L2C AVERAGE MISS LATENCY: 31.2325 cycles
L2C RQ	ACCESS:     951253	FORWARD:          0	MERGED:          0	TO_CACHE:     951253
L2C WQ	ACCESS:        412	FORWARD:          0	MERGED:          0	TO_CACHE:        412
L2C PQ	ACCESS:    5250752	FORWARD:          0	MERGED:    1899033	TO_CACHE:    3351719

L2C_Dead_block_count 482917 187970
L2C_inaccurate_prefetch_count 0 2996739
Interactions: positive negative neutral
L2C_interactions 117066 452 71756
L2C_positive 117066 0 0
L2C_negative 0 452 0
L2C_neutral 71336 227 0 0 0 193
L2C Instructions Evicting Data 0
L2C Translations Evicting Data 44
L2C Data Evicting Data 951778
L2C Instructions Evicting Instructions 0
L2C Translations Evicting Instructions 0
L2C Data Evicting Instructions 0
L2C Instructions Evicting Translations 0
L2C Translations Evicting Translations 0
L2C Data Evicting Translations 44
L2C Dense regions hint from L2: 0
PSCL5 TOTAL     ACCESS:         60  HIT:         60  MISS:          0  HIT %:        100  MISS %:          0   MPKI: 0
PSCL5 LOAD TRANSLATION ACCESS:         60  HIT:         60  MISS:          0  HIT %:        100  MISS %:          0   MPKI: 0
PSCL5 PREFETCH  REQUESTED:          0  ISSUED:          0  USEFUL:          0  USELESS:          0
PSCL5 USEFUL LOAD PREFETCHES:          0 PREFETCH ISSUED TO LOWER LEVEL:          0  ACCURACY: -nan
PSCL5 TIMELY PREFETCHES:          0 LATE PREFETCHES: 0 DROPPED PREFETCHES: 0
PSCL5 PREFETCHES SAME FILL-ORIGIN LEVEL: 0 DIFFERENT FILL-ORIGIN LEVEL: 0

PSCL5_Dead_block_count 0 0
PSCL5_inaccurate_prefetch_count 0 0
Interactions: positive negative neutral
PSCL5_interactions 0 0 0
PSCL5_positive 0 0 0
PSCL5_negative 0 0 0
PSCL5_neutral 0 0 0 0 0 0
PSCL4 TOTAL     ACCESS:         60  HIT:         60  MISS:          0  HIT %:        100  MISS %:          0   MPKI: 0
PSCL4 LOAD TRANSLATION ACCESS:         60  HIT:         60  MISS:          0  HIT %:        100  MISS %:          0   MPKI: 0
PSCL4 PREFETCH  REQUESTED:          0  ISSUED:          0  USEFUL:          0  USELESS:          0
PSCL4 USEFUL LOAD PREFETCHES:          0 PREFETCH ISSUED TO LOWER LEVEL:          0  ACCURACY: -nan
PSCL4 TIMELY PREFETCHES:          0 LATE PREFETCHES: 0 DROPPED PREFETCHES: 0
PSCL4 PREFETCHES SAME FILL-ORIGIN LEVEL: 0 DIFFERENT FILL-ORIGIN LEVEL: 0

PSCL4_Dead_block_count 0 0
PSCL4_inaccurate_prefetch_count 0 0
Interactions: positive negative neutral
PSCL4_interactions 0 0 0
PSCL4_positive 0 0 0
PSCL4_negative 0 0 0
PSCL4_neutral 0 0 0 0 0 0
PSCL3 TOTAL     ACCESS:         60  HIT:         60  MISS:          0  HIT %:        100  MISS %:          0   MPKI: 0
PSCL3 LOAD TRANSLATION ACCESS:         60  HIT:         60  MISS:          0  HIT %:        100  MISS %:          0   MPKI: 0
PSCL3 PREFETCH  REQUESTED:          0  ISSUED:          0  USEFUL:          0  USELESS:          0
PSCL3 USEFUL LOAD PREFETCHES:          0 PREFETCH ISSUED TO LOWER LEVEL:          0  ACCURACY: -nan
PSCL3 TIMELY PREFETCHES:          0 LATE PREFETCHES: 0 DROPPED PREFETCHES: 0
PSCL3 PREFETCHES SAME FILL-ORIGIN LEVEL: 0 DIFFERENT FILL-ORIGIN LEVEL: 0

PSCL3_Dead_block_count 0 0
PSCL3_inaccurate_prefetch_count 0 0
Interactions: positive negative neutral
PSCL3_interactions 0 0 0
PSCL3_positive 0 0 0
PSCL3_negative 0 0 0
PSCL3_neutral 0 0 0 0 0 0
PSCL2 TOTAL     ACCESS:         60  HIT:         60  MISS:          0  HIT %:        100  MISS %:          0   MPKI: 0
PSCL2 LOAD TRANSLATION ACCESS:         60  HIT:         60  MISS:          0  HIT %:        100  MISS %:          0   MPKI: 0
PSCL2 PREFETCH  REQUESTED:          0  ISSUED:          0  USEFUL:          0  USELESS:          0
PSCL2 USEFUL LOAD PREFETCHES:          0 PREFETCH ISSUED TO LOWER LEVEL:          0  ACCURACY: -nan
PSCL2 TIMELY PREFETCHES:          0 LATE PREFETCHES: 0 DROPPED PREFETCHES: 0
PSCL2 PREFETCHES SAME FILL-ORIGIN LEVEL: 0 DIFFERENT FILL-ORIGIN LEVEL: 0

PSCL2_Dead_block_count 0 0
PSCL2_inaccurate_prefetch_count 0 0
Interactions: positive negative neutral
PSCL2_interactions 0 0 0
PSCL2_positive 0 0 0
PSCL2_negative 0 0 0
PSCL2_neutral 0 0 0 0 0 0
LLC TOTAL     ACCESS:    3459617  HIT:    3240688  MISS:     218929  HIT %:    93.6719  MISS %:    6.32813   MPKI: 4.37858
LLC LOAD      ACCESS:     670573  HIT:     644716  MISS:      25857  HIT %:     96.144  MISS %:    3.85596   MPKI: 0.51714
LLC RFO       ACCESS:        270  HIT:        174  MISS:         96  HIT %:    64.4444  MISS %:    35.5556   MPKI: 0.00192
LLC PREFETCH  ACCESS:    2788318  HIT:    2595382  MISS:     192936  HIT %:    93.0806  MISS %:    6.91944   MPKI: 3.85872
LLC WRITEBACK ACCESS:        412  HIT:        394  MISS:         18  HIT %:    95.6311  MISS %:    4.36893   MPKI: 0.00036
LLC LOAD TRANSLATION ACCESS:         44  HIT:         22  MISS:         22  HIT %:         50  MISS %:         50   MPKI: 0.00044
LLC PREFETCH  REQUESTED:          0  ISSUED:          0  USEFUL:     169750  USELESS:      24322
LLC USEFUL LOAD PREFETCHES:     169750 PREFETCH ISSUED TO LOWER LEVEL:     207823  ACCURACY: 81.6801
LLC TIMELY PREFETCHES:     169750 LATE PREFETCHES: 14887 DROPPED PREFETCHES: 0
LLC PREFETCHES SAME FILL-ORIGIN LEVEL: 205201 DIFFERENT FILL-ORIGIN LEVEL: 0
LLC AVERAGE MISS LATENCY: 85.9483 cycles
LLC RQ	ACCESS:     670887	FORWARD:          0	MERGED:          0	TO_CACHE:     670887
LLC WQ	ACCESS:        412	FORWARD:          0	MERGED:          0	TO_CACHE:        412
LLC PQ	ACCESS:    2996739	FORWARD:          0	MERGED:      93012	TO_CACHE:    2903727

LLC_Dead_block_count 13 11075
LLC_inaccurate_prefetch_count 0 207823
Interactions: positive negative neutral
LLC_interactions 66382 2190 127054
LLC_positive 66382 0 0
LLC_negative 0 2190 0
LLC_neutral 104923 500 0 0 0 21631
LLC Dense regions hint to LLC: 0

RAW hits: 495
Loads Generated: 14752436
Loads sent to L1D: 14751940
Stores Generated: 656260
Stores sent to L1D: 656260
Major fault: 0 Minor fault: 716
Allocated PAGES: 716
 All Calls: 1141023
 Critical Calls: 1141023
------------------
Depth Distribution
------------------
depth 0: 0
depth 1: 1292756
depth 2: 1151753
depth 3: 1020246
depth 4: 825062
depth 5: 603337
depth 6: 389670
depth 7: 252899
depth 8: 178791
depth 9: 129165
depth 10: 76795
depth 11: 28077
depth 12: 3683
depth 13: 126
depth 14: 4
depth 15: 2
depth 16: 0
depth 17: 0
depth 18: 0
depth 19: 0
depth 20: 0
depth 21: 0
depth 22: 0
depth 23: 0
depth 24: 0
depth 25: 0
depth 26: 0
depth 27: 0
depth 28: 0
depth 29: 0
Total: 5952366
-----------------------------
-----------------------------
	Captured at Filter
-----------------------------
depth 0: 0
depth 1: 24330
depth 2: 18160
depth 3: 15237
depth 4: 14562
depth 5: 9648
depth 6: 2921
depth 7: 1100
depth 8: 681
depth 9: 471
depth 10: 306
depth 11: 105
depth 12: 13
depth 13: 0
depth 14: 0
depth 15: 0
depth 16: 0
depth 17: 0
depth 18: 0
depth 19: 0
depth 20: 0
depth 21: 0
depth 22: 0
depth 23: 0
depth 24: 0
depth 25: 0
depth 26: 0
depth 27: 0
depth 28: 0
depth 29: 0
-----------------------------
-----------------------------
		Lost at Page
-----------------------------
depth 0: 0
depth 1: 37132
depth 2: 46467
depth 3: 57115
depth 4: 58849
depth 5: 55336
depth 6: 42812
depth 7: 31373
depth 8: 24739
depth 9: 22706
depth 10: 16439
depth 11: 7203
depth 12: 1125
depth 13: 23
depth 14: 1
depth 15: 0
depth 16: 0
depth 17: 0
depth 18: 0
depth 19: 0
depth 20: 0
depth 21: 0
depth 22: 0
depth 23: 0
depth 24: 0
depth 25: 0
depth 26: 0
depth 27: 0
depth 28: 0
depth 29: 0
-----------------------------
-----------------------------
	Lost due to PQ Size
-----------------------------
5
-----------------------------
ST read accesses: 934152
ST write accesses: 16761
PT read accesses: 32093524
PT write accesses: 1399571
FILTER read accesses: 7237740
FILTER write accesses: 1838498
GHR read accesses: 2038446
GHR write accesses: 374788
GHR counter read accesses: 27250138
GHR counter write accesses: 1834665
ST tag read accesses: 374019490
ST tag write accesses: 5316547

DRAM Statistics
 CHANNEL 0
 RQ ROW_BUFFER_HIT:     181696  ROW_BUFFER_MISS:      37215
 DBUS_CONGESTED:          1
 WQ ROW_BUFFER_HIT:          1  ROW_BUFFER_MISS:        280  FULL:          0

 AVG_CONGESTED_CYCLE: 1
 All warmup complete: 2
Channel 0 Bank busy for read cycles: 0
Channel 0 Bank busy for write cycles: 0
Channel 0
Rank 0
0banks busy for read cycles: 82091569
0banks busy for write cycles: 253
1banks busy for read cycles: 7542729
1banks busy for write cycles: 35656
2banks busy for read cycles: 2109335
2banks busy for write cycles: 3643
3banks busy for read cycles: 576506
3banks busy for write cycles: 279
4banks busy for read cycles: 186672
4banks busy for write cycles: 0
5banks busy for read cycles: 59205
5banks busy for write cycles: 0
6banks busy for read cycles: 16441
6banks busy for write cycles: 0
7banks busy for read cycles: 4283
7banks busy for write cycles: 0
8banks busy for read cycles: 604
8banks busy for write cycles: 0

CPU 0 Branch Prediction Accuracy: 96.5207% MPKI: 9.7029 Average ROB Occupancy at Mispredict: 39.0969
Branch types
NOT_BRANCH: 36055994 72.112%
BRANCH_DIRECT_JUMP: 432 0.000864%
BRANCH_INDIRECT: 0 0%
BRANCH_CONDITIONAL: 13294304 26.5886%
BRANCH_DIRECT_CALL: 162579 0.325158%
BRANCH_INDIRECT_CALL: 161904 0.323808%
BRANCH_RETURN: 324483 0.648966%
BRANCH_OTHER: 0 0%

@sumon_overall_L1D         0         0         0         0         0         0         0
@Sumon_Early_by_class_L1D         0         0         0         0
@Sumon_Late_by_class_L1D         0         0         0         0

@Sumon_Early_by_cycle_L1D         0         0         0         0         0         0         0         0         0         0         0         0
@Sumon_Late_by_cycle_L1D         0         0         0         0         0         0
@Sumon_Early_stream_L1D         0         0         0         0         0         0         0         0         0         0         0         0
@Sumon_Early_CS_L1D         0         0         0         0         0         0         0         0         0         0         0         0
@Sumon_Early_CPLX_L1D         0         0         0         0         0         0         0         0         0         0         0         0
@Sumon_Late_stream_L1D         0         0         0         0         0         0
@Sumon_Late_CS_L1D         0         0         0         0         0         0
@Sumon_Late_CPLX_L1D         0         0         0         0         0         0
@sumon_overall_L2C    187720     92384         0       872    188595   5250752   5250754
@Sumon_Early_by_class_L2C         0         0         0         0
@Sumon_Late_by_class_L2C         0         0         0         0

@Sumon_Early_by_cycle_L2C    107043      1023     78208       804        15        41       325        62        53        30        46        70
@Sumon_Late_by_cycle_L2C     31468     44706     15162       757       291         0
@Sumon_Early_stream_L2C         0         0         0         0         0         0         0         0         0         0         0         0
@Sumon_Early_CS_L2C         0         0         0         0         0         0         0         0         0         0         0         0
@Sumon_Early_CPLX_L2C         0         0         0         0         0         0         0         0         0         0         0         0
@Sumon_Late_stream_L2C         0         0         0         0         0         0
@Sumon_Late_CS_L2C         0         0         0         0         0         0
@Sumon_Late_CPLX_L2C         0         0         0         0         0         0
DRAM PAGES: 1048576
Allocated PAGES: 716
