Initialize SIGNATURE TABLE
ST_SET: 1
ST_WAY: 256
ST_TAG_BIT: 16
ST_TAG_MASK: ffff

Initialize PATTERN TABLE
PT_SET: 512
PT_WAY: 4
SIG_DELTA_BIT: 7
C_SIG_BIT: 4
C_DELTA_BIT: 4

Initialize PREFETCH FILTER
FILTER_SET: 1024

*** ChampSim Multicore Out-of-Order Simulator ***

Warmup Instructions: 10000000
Simulation Instructions: 50000000
Number of CPUs: 1
LLC sets: 2048
LLC ways: 16
Off-chip DRAM Size: 4096 MB Channels: 1 Width: 64-bit Data Rate: 6400 MT/s
CPU 0 runs traces/SPEC2017/623.xalancbmk_s-10B.champsimtrace.xz
.xz
CPU 0 Bimodal branch predictor
BTB has LRU replacement policy
ITLB has LRU replacement policy
DTLB has LRU replacement policy
STLB has LRU replacement policy
L1I has LRU replacement policy
L1D has LRU replacement policy
ST_WAYS: 256
PT_SETS: 512
L2C has LRU replacement policy
Initialize Hawkeye state
Heartbeat CPU 0 instructions: 10000002 cycles: 3127930 heartbeat IPC: 3.197 cumulative IPC: 3.197 (Simulation time: 0 hr 7 min 48 sec) 

Warmup complete CPU 0 instructions: 10000002 cycles: 3127930 (Simulation time: 0 hr 7 min 48 sec) 

Heartbeat CPU 0 instructions: 20000000 cycles: 40044061 heartbeat IPC: 0.270884 cumulative IPC: 0.270884 (Simulation time: 0 hr 18 min 59 sec) 
Heartbeat CPU 0 instructions: 30000001 cycles: 76478327 heartbeat IPC: 0.274467 cumulative IPC: 0.272664 (Simulation time: 0 hr 30 min 14 sec) 
Heartbeat CPU 0 instructions: 40000000 cycles: 111537181 heartbeat IPC: 0.285235 cumulative IPC: 0.276729 (Simulation time: 0 hr 41 min 14 sec) 
Heartbeat CPU 0 instructions: 50000000 cycles: 150270533 heartbeat IPC: 0.258175 cumulative IPC: 0.271845 (Simulation time: 0 hr 52 min 9 sec) 
Heartbeat CPU 0 instructions: 60000001 cycles: 187151665 heartbeat IPC: 0.271141 cumulative IPC: 0.271704 (Simulation time: 0 hr 59 min 21 sec) 
Finished CPU 0 instructions: 50000003 cycles: 184023736 cumulative IPC: 0.271704 (Simulation time: 0 hr 59 min 21 sec) 

ChampSim completed all CPUs

Region of Interest Statistics

CPU 0 cumulative IPC: 0.271704 instructions: 50000003 cycles: 184023736
ITLB TOTAL     ACCESS:    7745994  HIT:    7716086  MISS:      29908  HIT %:    99.6139  MISS %:   0.386109   MPKI: 0.59816
ITLB LOAD TRANSLATION ACCESS:    7745994  HIT:    7716086  MISS:      29908  HIT %:    99.6139  MISS %:   0.386109   MPKI: 0.59816
ITLB PREFETCH  REQUESTED:          0  ISSUED:          0  USEFUL:          0  USELESS:          0
ITLB USEFUL LOAD PREFETCHES:          0 PREFETCH ISSUED TO LOWER LEVEL:          0  ACCURACY: -nan
ITLB TIMELY PREFETCHES:          0 LATE PREFETCHES: 0 DROPPED PREFETCHES: 0
ITLB PREFETCHES SAME FILL-ORIGIN LEVEL: 0 DIFFERENT FILL-ORIGIN LEVEL: 0
ITLB AVERAGE MISS LATENCY: 14.1267 cycles
ITLB RQ	ACCESS:    8912426	FORWARD:          0	MERGED:    1159445	TO_CACHE:    7752981

ITLB_Dead_block_count 29904 4
ITLB_inaccurate_prefetch_count 0 0
Interactions: positive negative neutral
ITLB_interactions 0 0 0
ITLB_positive 0 0 0
ITLB_negative 0 0 0
ITLB_neutral 0 0 0 0 0 0
DTLB TOTAL     ACCESS:   10303805  HIT:    9962733  MISS:     341072  HIT %:    96.6898  MISS %:    3.31016   MPKI: 6.82144
DTLB LOAD TRANSLATION ACCESS:   10303805  HIT:    9962733  MISS:     341072  HIT %:    96.6898  MISS %:    3.31016   MPKI: 6.82144
DTLB PREFETCH  REQUESTED:          0  ISSUED:          0  USEFUL:          0  USELESS:          0
DTLB USEFUL LOAD PREFETCHES:          0 PREFETCH ISSUED TO LOWER LEVEL:          0  ACCURACY: -nan
DTLB TIMELY PREFETCHES:          0 LATE PREFETCHES: 0 DROPPED PREFETCHES: 0
DTLB PREFETCHES SAME FILL-ORIGIN LEVEL: 0 DIFFERENT FILL-ORIGIN LEVEL: 0
DTLB AVERAGE MISS LATENCY: 59.3765 cycles
DTLB RQ	ACCESS:   11366845	FORWARD:          0	MERGED:    1021032	TO_CACHE:   10345813

DTLB_Dead_block_count 341068 4
DTLB_inaccurate_prefetch_count 0 0
Interactions: positive negative neutral
DTLB_interactions 0 0 0
DTLB_positive 0 0 0
DTLB_negative 0 0 0
DTLB_neutral 0 0 0 0 0 0
STLB TOTAL     ACCESS:     370980  HIT:     107459  MISS:     263521  HIT %:    28.9663  MISS %:    71.0337   MPKI: 5.27042
STLB LOAD TRANSLATION ACCESS:     370980  HIT:     107459  MISS:     263521  HIT %:    28.9663  MISS %:    71.0337   MPKI: 5.27042
STLB PREFETCH  REQUESTED:          0  ISSUED:          0  USEFUL:          0  USELESS:          0
STLB USEFUL LOAD PREFETCHES:          0 PREFETCH ISSUED TO LOWER LEVEL:          0  ACCURACY: -nan
STLB TIMELY PREFETCHES:          0 LATE PREFETCHES: 0 DROPPED PREFETCHES: 0
STLB PREFETCHES SAME FILL-ORIGIN LEVEL: 0 DIFFERENT FILL-ORIGIN LEVEL: 0
STLB AVERAGE MISS LATENCY: 65.7402 cycles
STLB RQ	ACCESS:     370980	FORWARD:          0	MERGED:          0	TO_CACHE:     370980

STLB_Dead_block_count 263517 4
STLB_inaccurate_prefetch_count 0 0
Interactions: positive negative neutral
STLB_interactions 0 0 0
STLB_positive 0 0 0
STLB_negative 0 0 0
STLB_neutral 0 0 0 0 0 0
STLB Hit, L1D data hit: 0
STLB Hit, L2C data hit: 0
STLB Hit, LLC data hit: 0
STLB Hit, LLC data miss: 0
STLB STLB hints to L2: 0
L1D TOTAL     ACCESS:   11271143  HIT:    9882164  MISS:    1388979  HIT %:    87.6767  MISS %:    12.3233   MPKI: 27.7796
L1D LOAD      ACCESS:    9040708  HIT:    7670435  MISS:    1370273  HIT %:    84.8433  MISS %:    15.1567   MPKI: 27.4055
L1D RFO       ACCESS:    2230435  HIT:    2211729  MISS:      18706  HIT %:    99.1613  MISS %:    0.83867   MPKI: 0.37412
L1D PREFETCH  REQUESTED:          0  ISSUED:          0  USEFUL:          0  USELESS:          0
L1D USEFUL LOAD PREFETCHES:          0 PREFETCH ISSUED TO LOWER LEVEL:          0  ACCURACY: -nan
L1D TIMELY PREFETCHES:          0 LATE PREFETCHES: 0 DROPPED PREFETCHES: 0
L1D PREFETCHES SAME FILL-ORIGIN LEVEL: 0 DIFFERENT FILL-ORIGIN LEVEL: 0
L1D AVERAGE MISS LATENCY: 101.196 cycles
L1D RQ	ACCESS:   14737624	FORWARD:          0	MERGED:    5591191	TO_CACHE:    9089329
L1D WQ	ACCESS:    2303184	FORWARD:      57104	MERGED:      25668	TO_CACHE:    2277516

L1D_Dead_block_count 11796 1358479
L1D_inaccurate_prefetch_count 0 0
Interactions: positive negative neutral
L1D_interactions 0 0 0
L1D_positive 0 0 0
L1D_negative 0 0 0
L1D_neutral 0 0 0 0 0 0
L1D UNIQUE REGIONS ACCESSED: 0
L1D REGIONS CONFLICTS: 0
L1D Cross Page Prefetch Requests: 0
L1D Same Page Prefetch Requests: 0
L1D ROI Sum of L1D PQ occupancy: 0
L1D PREFETCHES PUSHED FROM L2C: 0
L1I TOTAL     ACCESS:    8864840  HIT:    8693494  MISS:     171346  HIT %:    98.0671  MISS %:    1.93287   MPKI: 3.42692
L1I LOAD      ACCESS:    8864840  HIT:    8693494  MISS:     171346  HIT %:    98.0671  MISS %:    1.93287   MPKI: 3.42692
L1I PREFETCH  REQUESTED:          0  ISSUED:          0  USEFUL:          0  USELESS:          0
L1I USEFUL LOAD PREFETCHES:          0 PREFETCH ISSUED TO LOWER LEVEL:          0  ACCURACY: -nan
L1I TIMELY PREFETCHES:          0 LATE PREFETCHES: 0 DROPPED PREFETCHES: 0
L1I PREFETCHES SAME FILL-ORIGIN LEVEL: 0 DIFFERENT FILL-ORIGIN LEVEL: 0
L1I AVERAGE MISS LATENCY: 27.0249 cycles
L1I RQ	ACCESS:   15117303	FORWARD:          0	MERGED:    6204877	TO_CACHE:    8912426

L1I_Dead_block_count 171342 4
L1I_inaccurate_prefetch_count 0 0
Interactions: positive negative neutral
L1I_interactions 0 0 0
L1I_positive 0 0 0
L1I_negative 0 0 0
L1I_neutral 0 0 0 0 0 0
BTB TOTAL     ACCESS:    8242338  HIT:    8167686  MISS:      74652  HIT %:    99.0943  MISS %:   0.905714   MPKI: 1.49304
BTB BRANCH_DIRECT_JUMP	ACCESS:     118676  HIT:     118023  MISS:        653
BTB BRANCH_INDIRECT	ACCESS:      21952  HIT:       8655  MISS:      13297
BTB BRANCH_CONDITIONAL	ACCESS:    6931274  HIT:    6928562  MISS:       2712
BTB BRANCH_DIRECT_CALL	ACCESS:     319784  HIT:     318786  MISS:        998
BTB BRANCH_INDIRECT_CALL	ACCESS:     265434  HIT:     262598  MISS:       2836
BTB BRANCH_RETURN	ACCESS:     585218  HIT:     531062  MISS:      54156
BTB BRANCH_OTHER ACCESS:          0  HIT:          0  MISS:          0

L2C TOTAL     ACCESS:    1949071  HIT:     595974  MISS:    1353097  HIT %:    30.5773  MISS %:    69.4227   MPKI: 27.0619
L2C LOAD      ACCESS:    1541619  HIT:     281759  MISS:    1259860  HIT %:    18.2768  MISS %:    81.7232   MPKI: 25.1972
L2C DATA LOAD MPKI: 24.5395
L2C INSTRUCTION LOAD MPKI: 0.65772
L2C RFO       ACCESS:      18705  HIT:       6562  MISS:      12143  HIT %:    35.0815  MISS %:    64.9185   MPKI: 0.24286
L2C PREFETCH  ACCESS:      87934  HIT:      69647  MISS:      18287  HIT %:    79.2037  MISS %:    20.7963   MPKI: 0.36574
L2C DATA PREFETCH MPKI: 0.36574
L2C INSTRUCTION PREFETCH MPKI: 0
L2C WRITEBACK ACCESS:      36128  HIT:      35961  MISS:        167  HIT %:    99.5378  MISS %:   0.462245   MPKI: 0.00334
L2C LOAD TRANSLATION ACCESS:     264685  HIT:     202045  MISS:      62640  HIT %:    76.3341  MISS %:    23.6659   MPKI: 1.2528
L2C PREFETCH  REQUESTED:    1057070  ISSUED:    1057070  USEFUL:      14507  USELESS:       3785
L2C USEFUL LOAD PREFETCHES:      14507 PREFETCH ISSUED TO LOWER LEVEL:     780323  ACCURACY: 1.8591
L2C TIMELY PREFETCHES:      14507 LATE PREFETCHES: 8378 DROPPED PREFETCHES: 0
L2C PREFETCHES SAME FILL-ORIGIN LEVEL: 26665 DIFFERENT FILL-ORIGIN LEVEL: 753658
L2C AVERAGE MISS LATENCY: 97.7281 cycles
L2C RQ	ACCESS:    1825012	FORWARD:          0	MERGED:          0	TO_CACHE:    1825011
L2C WQ	ACCESS:      36128	FORWARD:          1	MERGED:          0	TO_CACHE:      36128
L2C PQ	ACCESS:    1057070	FORWARD:          0	MERGED:      57466	TO_CACHE:     999604

L2C_Dead_block_count 1270028 56239
L2C_inaccurate_prefetch_count 26734 753589
Interactions: positive negative neutral
L2C_interactions 17385 3580 1030
L2C_positive 17384 0 1
L2C_negative 2 3578 0
L2C_neutral 730 110 94 20 0 76
L2C Instructions Evicting Data 30878
L2C Translations Evicting Data 58086
L2C Data Evicting Data 1167471
L2C Instructions Evicting Instructions 831
L2C Translations Evicting Instructions 1353
L2C Data Evicting Instructions 31673
L2C Instructions Evicting Translations 1177
L2C Translations Evicting Translations 3201
L2C Data Evicting Translations 58260
L2C Dense regions hint from L2: 0
PSCL5 TOTAL     ACCESS:     263521  HIT:     263521  MISS:          0  HIT %:        100  MISS %:          0   MPKI: 0
PSCL5 LOAD TRANSLATION ACCESS:     263521  HIT:     263521  MISS:          0  HIT %:        100  MISS %:          0   MPKI: 0
PSCL5 PREFETCH  REQUESTED:          0  ISSUED:          0  USEFUL:          0  USELESS:          0
PSCL5 USEFUL LOAD PREFETCHES:          0 PREFETCH ISSUED TO LOWER LEVEL:          0  ACCURACY: -nan
PSCL5 TIMELY PREFETCHES:          0 LATE PREFETCHES: 0 DROPPED PREFETCHES: 0
PSCL5 PREFETCHES SAME FILL-ORIGIN LEVEL: 0 DIFFERENT FILL-ORIGIN LEVEL: 0

PSCL5_Dead_block_count 0 0
PSCL5_inaccurate_prefetch_count 0 0
Interactions: positive negative neutral
PSCL5_interactions 0 0 0
PSCL5_positive 0 0 0
PSCL5_negative 0 0 0
PSCL5_neutral 0 0 0 0 0 0
PSCL4 TOTAL     ACCESS:     263521  HIT:     263521  MISS:          0  HIT %:        100  MISS %:          0   MPKI: 0
PSCL4 LOAD TRANSLATION ACCESS:     263521  HIT:     263521  MISS:          0  HIT %:        100  MISS %:          0   MPKI: 0
PSCL4 PREFETCH  REQUESTED:          0  ISSUED:          0  USEFUL:          0  USELESS:          0
PSCL4 USEFUL LOAD PREFETCHES:          0 PREFETCH ISSUED TO LOWER LEVEL:          0  ACCURACY: -nan
PSCL4 TIMELY PREFETCHES:          0 LATE PREFETCHES: 0 DROPPED PREFETCHES: 0
PSCL4 PREFETCHES SAME FILL-ORIGIN LEVEL: 0 DIFFERENT FILL-ORIGIN LEVEL: 0

PSCL4_Dead_block_count 0 0
PSCL4_inaccurate_prefetch_count 0 0
Interactions: positive negative neutral
PSCL4_interactions 0 0 0
PSCL4_positive 0 0 0
PSCL4_negative 0 0 0
PSCL4_neutral 0 0 0 0 0 0
PSCL3 TOTAL     ACCESS:     263521  HIT:     263521  MISS:          0  HIT %:        100  MISS %:          0   MPKI: 0
PSCL3 LOAD TRANSLATION ACCESS:     263521  HIT:     263521  MISS:          0  HIT %:        100  MISS %:          0   MPKI: 0
PSCL3 PREFETCH  REQUESTED:          0  ISSUED:          0  USEFUL:          0  USELESS:          0
PSCL3 USEFUL LOAD PREFETCHES:          0 PREFETCH ISSUED TO LOWER LEVEL:          0  ACCURACY: -nan
PSCL3 TIMELY PREFETCHES:          0 LATE PREFETCHES: 0 DROPPED PREFETCHES: 0
PSCL3 PREFETCHES SAME FILL-ORIGIN LEVEL: 0 DIFFERENT FILL-ORIGIN LEVEL: 0

PSCL3_Dead_block_count 0 0
PSCL3_inaccurate_prefetch_count 0 0
Interactions: positive negative neutral
PSCL3_interactions 0 0 0
PSCL3_positive 0 0 0
PSCL3_negative 0 0 0
PSCL3_neutral 0 0 0 0 0 0
PSCL2 TOTAL     ACCESS:     263521  HIT:     262357  MISS:       1164  HIT %:    99.5583  MISS %:   0.441711   MPKI: 0.02328
PSCL2 LOAD TRANSLATION ACCESS:     263521  HIT:     262357  MISS:       1164  HIT %:    99.5583  MISS %:   0.441711   MPKI: 0.02328
PSCL2 PREFETCH  REQUESTED:          0  ISSUED:          0  USEFUL:          0  USELESS:          0
PSCL2 USEFUL LOAD PREFETCHES:          0 PREFETCH ISSUED TO LOWER LEVEL:          0  ACCURACY: -nan
PSCL2 TIMELY PREFETCHES:          0 LATE PREFETCHES: 0 DROPPED PREFETCHES: 0
PSCL2 PREFETCHES SAME FILL-ORIGIN LEVEL: 0 DIFFERENT FILL-ORIGIN LEVEL: 0

PSCL2_Dead_block_count 0 0
PSCL2_inaccurate_prefetch_count 0 0
Interactions: positive negative neutral
PSCL2_interactions 0 0 0
PSCL2_positive 0 0 0
PSCL2_negative 0 0 0
PSCL2_neutral 0 0 0 0 0 0
LLC TOTAL     ACCESS:    2053708  HIT:     759693  MISS:    1294015  HIT %:    36.9913  MISS %:    63.0087   MPKI: 25.8803
LLC LOAD      ACCESS:    1251482  HIT:     460474  MISS:     791008  HIT %:    36.7943  MISS %:    63.2057   MPKI: 15.8202
LLC RFO       ACCESS:      12143  HIT:       3609  MISS:       8534  HIT %:    29.7208  MISS %:    70.2792   MPKI: 0.17068
LLC PREFETCH  ACCESS:     707703  HIT:     262540  MISS:     445163  HIT %:    37.0975  MISS %:    62.9025   MPKI: 8.90326
LLC WRITEBACK ACCESS:      19740  HIT:      14213  MISS:       5527  HIT %:     72.001  MISS %:     27.999   MPKI: 0.11054
LLC LOAD TRANSLATION ACCESS:      62640  HIT:      18857  MISS:      43783  HIT %:    30.1038  MISS %:    69.8962   MPKI: 0.87566
LLC PREFETCH  REQUESTED:          0  ISSUED:          0  USEFUL:     143051  USELESS:     303072
LLC USEFUL LOAD PREFETCHES:     143051 PREFETCH ISSUED TO LOWER LEVEL:     493908  ACCURACY: 28.9631
LLC TIMELY PREFETCHES:     143051 LATE PREFETCHES: 48745 DROPPED PREFETCHES: 0
LLC PREFETCHES SAME FILL-ORIGIN LEVEL: 482597 DIFFERENT FILL-ORIGIN LEVEL: 0
LLC AVERAGE MISS LATENCY: 108.133 cycles
LLC RQ	ACCESS:    1326267	FORWARD:          0	MERGED:          0	TO_CACHE:    1326267
LLC WQ	ACCESS:      19740	FORWARD:          0	MERGED:          0	TO_CACHE:      19740
LLC PQ	ACCESS:     780323	FORWARD:          0	MERGED:       2336	TO_CACHE:     777987

LLC_Dead_block_count 363973 430609
LLC_inaccurate_prefetch_count 202998 290910
Interactions: positive negative neutral
LLC_interactions 217628 135104 287279
LLC_positive 190931 1382 25315
LLC_negative 3459 105408 26237
LLC_neutral 4524 1605 138978 86453 23279 32440
LLC Dense regions hint to LLC: 0

RAW hits: 58667
Loads Generated: 14796291
Loads sent to L1D: 14737624
Stores Generated: 2303186
Stores sent to L1D: 2303184
Major fault: 0 Minor fault: 10925
Allocated PAGES: 10925
 All Calls: 1645350
 Critical Calls: 1645350
------------------
Depth Distribution
------------------
depth 0: 0
depth 1: 1111058
depth 2: 167753
depth 3: 23117
depth 4: 6017
depth 5: 1853
depth 6: 991
depth 7: 408
depth 8: 130
depth 9: 0
depth 10: 0
depth 11: 0
depth 12: 0
depth 13: 0
depth 14: 0
depth 15: 0
depth 16: 0
depth 17: 0
depth 18: 0
depth 19: 0
depth 20: 0
depth 21: 0
depth 22: 0
depth 23: 0
depth 24: 0
depth 25: 0
depth 26: 0
depth 27: 0
depth 28: 0
depth 29: 0
Total: 1311327
-----------------------------
-----------------------------
	Captured at Filter
-----------------------------
depth 0: 0
depth 1: 2206
depth 2: 325
depth 3: 167
depth 4: 61
depth 5: 12
depth 6: 5
depth 7: 1
depth 8: 1
depth 9: 0
depth 10: 0
depth 11: 0
depth 12: 0
depth 13: 0
depth 14: 0
depth 15: 0
depth 16: 0
depth 17: 0
depth 18: 0
depth 19: 0
depth 20: 0
depth 21: 0
depth 22: 0
depth 23: 0
depth 24: 0
depth 25: 0
depth 26: 0
depth 27: 0
depth 28: 0
depth 29: 0
-----------------------------
-----------------------------
		Lost at Page
-----------------------------
depth 0: 0
depth 1: 21972
depth 2: 3310
depth 3: 1171
depth 4: 519
depth 5: 163
depth 6: 114
depth 7: 61
depth 8: 20
depth 9: 0
depth 10: 0
depth 11: 0
depth 12: 0
depth 13: 0
depth 14: 0
depth 15: 0
depth 16: 0
depth 17: 0
depth 18: 0
depth 19: 0
depth 20: 0
depth 21: 0
depth 22: 0
depth 23: 0
depth 24: 0
depth 25: 0
depth 26: 0
depth 27: 0
depth 28: 0
depth 29: 0
-----------------------------
-----------------------------
	Lost due to PQ Size
-----------------------------
205
-----------------------------
ST read accesses: 1088308
ST write accesses: 281967
PT read accesses: 14728605
PT write accesses: 1340303
FILTER read accesses: 3782558
FILTER write accesses: 1430411
GHR read accesses: 2418393
GHR write accesses: 21405
GHR counter read accesses: 12283790
GHR counter write accesses: 1432762
ST tag read accesses: 671462548
ST tag write accesses: 77301663

DRAM Statistics
 CHANNEL 0
 RQ ROW_BUFFER_HIT:     835576  ROW_BUFFER_MISS:     452912
 DBUS_CONGESTED:        292
 WQ ROW_BUFFER_HIT:        998  ROW_BUFFER_MISS:      10934  FULL:          0

 AVG_CONGESTED_CYCLE: 5
 All warmup complete: 2
Channel 0 Bank busy for read cycles: 0
Channel 0 Bank busy for write cycles: 0
Channel 0
Rank 0
0banks busy for read cycles: 119309982
0banks busy for write cycles: 10520
1banks busy for read cycles: 34783663
1banks busy for write cycles: 1890027
2banks busy for read cycles: 15668704
2banks busy for write cycles: 160719
3banks busy for read cycles: 7081790
3banks busy for write cycles: 27843
4banks busy for read cycles: 3516514
4banks busy for write cycles: 4983
5banks busy for read cycles: 1209304
5banks busy for write cycles: 314
6banks busy for read cycles: 285653
6banks busy for write cycles: 449
7banks busy for read cycles: 57264
7banks busy for write cycles: 198
8banks busy for read cycles: 15522
8banks busy for write cycles: 288

CPU 0 Branch Prediction Accuracy: 94.93% MPKI: 13.2206 Average ROB Occupancy at Mispredict: 36.8749
Branch types
NOT_BRANCH: 36961542 73.9231%
BRANCH_DIRECT_JUMP: 118676 0.237352%
BRANCH_INDIRECT: 21952 0.043904%
BRANCH_CONDITIONAL: 11727055 23.4541%
BRANCH_DIRECT_CALL: 319784 0.639568%
BRANCH_INDIRECT_CALL: 265434 0.530868%
BRANCH_RETURN: 585218 1.17044%
BRANCH_OTHER: 0 0%

@sumon_overall_L1D         0         0         0         0         0         0         0
@Sumon_Early_by_class_L1D         0         0         0         0
@Sumon_Late_by_class_L1D         0         0         0         0

@Sumon_Early_by_cycle_L1D         0         0         0         0         0         0         0         0         0         0         0         0
@Sumon_Late_by_cycle_L1D         0         0         0         0         0         0
@Sumon_Early_stream_L1D         0         0         0         0         0         0         0         0         0         0         0         0
@Sumon_Early_CS_L1D         0         0         0         0         0         0         0         0         0         0         0         0
@Sumon_Early_CPLX_L1D         0         0         0         0         0         0         0         0         0         0         0         0
@Sumon_Late_stream_L1D         0         0         0         0         0         0
@Sumon_Late_CS_L1D         0         0         0         0         0         0
@Sumon_Late_CPLX_L1D         0         0         0         0         0         0
@sumon_overall_L2C     14507      8378         0      3785     18287   1057070   1057070
@Sumon_Early_by_class_L2C         0         0         0         0
@Sumon_Late_by_class_L2C         0         0         0         0

@Sumon_Early_by_cycle_L2C      7411      2768       552        24        10       520        64      3016        30        66        15        31
@Sumon_Late_by_cycle_L2C      1990      1280      2122      1267      1719         0
@Sumon_Early_stream_L2C         0         0         0         0         0         0         0         0         0         0         0         0
@Sumon_Early_CS_L2C         0         0         0         0         0         0         0         0         0         0         0         0
@Sumon_Early_CPLX_L2C         0         0         0         0         0         0         0         0         0         0         0         0
@Sumon_Late_stream_L2C         0         0         0         0         0         0
@Sumon_Late_CS_L2C         0         0         0         0         0         0
@Sumon_Late_CPLX_L2C         0         0         0         0         0         0
DRAM PAGES: 1048576
Allocated PAGES: 10925
