
*** ChampSim Multicore Out-of-Order Simulator ***

Warmup Instructions: 10000000
Simulation Instructions: 50000000
Number of CPUs: 1
LLC sets: 2048
LLC ways: 16
Off-chip DRAM Size: 4096 MB Channels: 1 Width: 64-bit Data Rate: 6400 MT/s
CPU 0 runs traces/clientserver/client_007.champsimtrace.xz
.xz
CPU 0 Bimodal branch predictor
BTB has LRU replacement policy
ITLB has LRU replacement policy
DTLB has LRU replacement policy
STLB has LRU replacement policy
L1I has LRU replacement policy
IP Table Entries: 256
L1D has LRU replacement policy
IP_Table L2 entries: 256
L2C has LRU replacement policy
Initialize DRRIP state for LLC
Heartbeat CPU 0 instructions: 10000003 cycles: 3032216 heartbeat IPC: 3.29792 cumulative IPC: 3.29792 (Simulation time: 0 hr 18 min 21 sec) 

Warmup complete CPU 0 instructions: 10000003 cycles: 3032216 (Simulation time: 0 hr 18 min 21 sec) 

Heartbeat CPU 0 instructions: 20000003 cycles: 20125649 heartbeat IPC: 0.58502 cumulative IPC: 0.58502 (Simulation time: 0 hr 34 min 59 sec) 
Heartbeat CPU 0 instructions: 30000000 cycles: 36224390 heartbeat IPC: 0.621166 cumulative IPC: 0.602552 (Simulation time: 0 hr 53 min 12 sec) 
Heartbeat CPU 0 instructions: 40000003 cycles: 52532273 heartbeat IPC: 0.613201 cumulative IPC: 0.60606 (Simulation time: 1 hr 12 min 37 sec) 
Heartbeat CPU 0 instructions: 50000001 cycles: 69453782 heartbeat IPC: 0.590964 cumulative IPC: 0.602214 (Simulation time: 1 hr 29 min 36 sec) 
Heartbeat CPU 0 instructions: 60000003 cycles: 85294559 heartbeat IPC: 0.631282 cumulative IPC: 0.607812 (Simulation time: 1 hr 42 min 15 sec) 
Finished CPU 0 instructions: 50000000 cycles: 82262343 cumulative IPC: 0.607812 (Simulation time: 1 hr 42 min 15 sec) 

ChampSim completed all CPUs

Region of Interest Statistics

CPU 0 cumulative IPC: 0.607812 instructions: 50000000 cycles: 82262343
ITLB TOTAL     ACCESS:    8189340  HIT:    8037999  MISS:     151341  HIT %:     98.152  MISS %:    1.84802   MPKI: 3.02682
ITLB LOAD TRANSLATION ACCESS:    8189340  HIT:    8037999  MISS:     151341  HIT %:     98.152  MISS %:    1.84802   MPKI: 3.02682
ITLB PREFETCH  REQUESTED:          0  ISSUED:          0  USEFUL:          0  USELESS:          0
ITLB USEFUL LOAD PREFETCHES:          0 PREFETCH ISSUED TO LOWER LEVEL:          0  ACCURACY: -nan
ITLB TIMELY PREFETCHES:          0 LATE PREFETCHES: 0 DROPPED PREFETCHES: 0
ITLB PREFETCHES SAME FILL-ORIGIN LEVEL: 0 DIFFERENT FILL-ORIGIN LEVEL: 0
ITLB AVERAGE MISS LATENCY: 9.77906 cycles
ITLB RQ	ACCESS:    9761584	FORWARD:          0	MERGED:    1546741	TO_CACHE:    8214843

DTLB TOTAL     ACCESS:   13057075  HIT:   12734007  MISS:     323068  HIT %:    97.5257  MISS %:    2.47428   MPKI: 6.46136
DTLB LOAD TRANSLATION ACCESS:   13057075  HIT:   12734007  MISS:     323068  HIT %:    97.5257  MISS %:    2.47428   MPKI: 6.46136
DTLB PREFETCH  REQUESTED:          0  ISSUED:          0  USEFUL:          0  USELESS:          0
DTLB USEFUL LOAD PREFETCHES:          0 PREFETCH ISSUED TO LOWER LEVEL:          0  ACCURACY: -nan
DTLB TIMELY PREFETCHES:          0 LATE PREFETCHES: 0 DROPPED PREFETCHES: 0
DTLB PREFETCHES SAME FILL-ORIGIN LEVEL: 0 DIFFERENT FILL-ORIGIN LEVEL: 0
DTLB AVERAGE MISS LATENCY: 10.3588 cycles
DTLB RQ	ACCESS:   15137319	FORWARD:          0	MERGED:    2066038	TO_CACHE:   13071281

STLB TOTAL     ACCESS:    1389532  HIT:    1385774  MISS:       3758  HIT %:    99.7295  MISS %:   0.270451   MPKI: 0.07516
STLB LOAD TRANSLATION ACCESS:     474409  HIT:     470651  MISS:       3758  HIT %:    99.2079  MISS %:   0.792143   MPKI: 0.07516
STLB TRANSLATION FROM L1D PREFETCHER ACCESS:     915123  HIT:     915123  MISS:          0  HIT %:        100  MISS %:          0   MPKI: 0
STLB PREFETCH  REQUESTED:          0  ISSUED:          0  USEFUL:          0  USELESS:          0
STLB USEFUL LOAD PREFETCHES:          0 PREFETCH ISSUED TO LOWER LEVEL:          0  ACCURACY: -nan
STLB TIMELY PREFETCHES:          0 LATE PREFETCHES: 0 DROPPED PREFETCHES: 0
STLB PREFETCHES SAME FILL-ORIGIN LEVEL: 0 DIFFERENT FILL-ORIGIN LEVEL: 0
STLB AVERAGE MISS LATENCY: 145.754 cycles
STLB RQ	ACCESS:    1795869	FORWARD:          0	MERGED:     406337	TO_CACHE:    1389532

STLB Hit, L1D data hit: 0
STLB Hit, L2C data hit: 0
STLB Hit, LLC data hit: 0
STLB Hit, LLC data miss: 0
STLB STLB hints to L2: 0
L1D TOTAL     ACCESS:   16258476  HIT:   15042495  MISS:    1215981  HIT %:    92.5209  MISS %:    7.47906   MPKI: 24.3196
L1D LOAD      ACCESS:   10931688  HIT:   10305233  MISS:     626455  HIT %:    94.2694  MISS %:    5.73063   MPKI: 12.5291
L1D RFO       ACCESS:    4048227  HIT:    3954122  MISS:      94105  HIT %:    97.6754  MISS %:     2.3246   MPKI: 1.8821
L1D PREFETCH  ACCESS:    1278561  HIT:     783140  MISS:     495421  HIT %:    61.2517  MISS %:    38.7483   MPKI: 9.90842
L1D PREFETCH  REQUESTED:    2643392  ISSUED:    2643135  USEFUL:     165582  USELESS:     329709
L1D USEFUL LOAD PREFETCHES:     165582 PREFETCH ISSUED TO LOWER LEVEL:     508155  ACCURACY: 32.5849
L1D TIMELY PREFETCHES:     165582 LATE PREFETCHES: 12351 DROPPED PREFETCHES: 0
L1D PREFETCHES SAME FILL-ORIGIN LEVEL: 508155 DIFFERENT FILL-ORIGIN LEVEL: 0
L1D AVERAGE MISS LATENCY: 484384 cycles
L1D RQ	ACCESS:   14211697	FORWARD:          0	MERGED:    3173108	TO_CACHE:   10961739
L1D WQ	ACCESS:    4262314	FORWARD:      77065	MERGED:      86734	TO_CACHE:    4175580
L1D PQ	ACCESS:    1321675	FORWARD:          0	MERGED:          0	TO_CACHE:    1321460

L1D UNIQUE REGIONS ACCESSED: 0
L1D REGIONS CONFLICTS: 0
L1D Cross Page Prefetch Requests: 0
L1D Same Page Prefetch Requests: 1532430
L1D ROI Sum of L1D PQ occupancy: 17158683
L1D PREFETCHES PUSHED FROM L2C: 0
L1I TOTAL     ACCESS:    9431126  HIT:    8501340  MISS:     929786  HIT %:    90.1413  MISS %:     9.8587   MPKI: 18.5957
L1I LOAD      ACCESS:    9431126  HIT:    8501340  MISS:     929786  HIT %:    90.1413  MISS %:     9.8587   MPKI: 18.5957
L1I PREFETCH  REQUESTED:          0  ISSUED:          0  USEFUL:          0  USELESS:          0
L1I USEFUL LOAD PREFETCHES:          0 PREFETCH ISSUED TO LOWER LEVEL:          0  ACCURACY: -nan
L1I TIMELY PREFETCHES:          0 LATE PREFETCHES: 0 DROPPED PREFETCHES: 0
L1I PREFETCHES SAME FILL-ORIGIN LEVEL: 0 DIFFERENT FILL-ORIGIN LEVEL: 0
L1I AVERAGE MISS LATENCY: 16.1836 cycles
L1I RQ	ACCESS:   14296496	FORWARD:          0	MERGED:    4534912	TO_CACHE:    9761584

BTB TOTAL     ACCESS:    6697829  HIT:    6283948  MISS:     413881  HIT %:    93.8207  MISS %:    6.17933   MPKI: 8.27762
BTB BRANCH_DIRECT_JUMP	ACCESS:     755928  HIT:     751742  MISS:       4186
BTB BRANCH_INDIRECT	ACCESS:     348209  HIT:     188037  MISS:     160172
BTB BRANCH_CONDITIONAL	ACCESS:    4185151  HIT:    4172629  MISS:      12522
BTB BRANCH_DIRECT_CALL	ACCESS:     451943  HIT:     445427  MISS:       6516
BTB BRANCH_INDIRECT_CALL	ACCESS:     241100  HIT:     182621  MISS:      58479
BTB BRANCH_RETURN	ACCESS:     715498  HIT:     543492  MISS:     172006
BTB BRANCH_OTHER ACCESS:          0  HIT:          0  MISS:          0

L2C TOTAL     ACCESS:    2890530  HIT:    2684157  MISS:     206373  HIT %:    92.8604  MISS %:    7.13962   MPKI: 4.12746
L2C LOAD      ACCESS:    1543824  HIT:    1466693  MISS:      77131  HIT %:    95.0039  MISS %:     4.9961   MPKI: 1.54262
L2C DATA LOAD MPKI: 1.24888
L2C INSTRUCTION LOAD MPKI: 0.29374
L2C RFO       ACCESS:      93722  HIT:      56548  MISS:      37174  HIT %:    60.3359  MISS %:    39.6641   MPKI: 0.74348
L2C PREFETCH  ACCESS:     945542  HIT:     855310  MISS:      90232  HIT %:    90.4571  MISS %:    9.54289   MPKI: 1.80464
L2C DATA PREFETCH MPKI: 1.80464
L2C INSTRUCTION PREFETCH MPKI: 0
L2C WRITEBACK ACCESS:     303485  HIT:     303274  MISS:        211  HIT %:    99.9305  MISS %:  0.0695257   MPKI: 0.00422
L2C LOAD TRANSLATION ACCESS:       3957  HIT:       2332  MISS:       1625  HIT %:    58.9335  MISS %:    41.0665   MPKI: 0.0325
L2C PREFETCH  REQUESTED:     516122  ISSUED:     516110  USEFUL:      16738  USELESS:      72019
L2C USEFUL LOAD PREFETCHES:      16738 PREFETCH ISSUED TO LOWER LEVEL:      90819  ACCURACY: 18.4301
L2C TIMELY PREFETCHES:      16738 LATE PREFETCHES: 587 DROPPED PREFETCHES: 0
L2C PREFETCHES SAME FILL-ORIGIN LEVEL: 25200 DIFFERENT FILL-ORIGIN LEVEL: 0
L2C AVERAGE MISS LATENCY: 112.631 cycles
L2C RQ	ACCESS:    1641569	FORWARD:          0	MERGED:          0	TO_CACHE:    1641503
L2C WQ	ACCESS:     303485	FORWARD:         82	MERGED:          0	TO_CACHE:     303485
L2C PQ	ACCESS:    1024265	FORWARD:          0	MERGED:      73778	TO_CACHE:     950471

L2C Instructions Evicting Data 12521
L2C Translations Evicting Data 1463
L2C Data Evicting Data 175912
L2C Instructions Evicting Instructions 2005
L2C Translations Evicting Instructions 141
L2C Data Evicting Instructions 12564
L2C Instructions Evicting Translations 161
L2C Translations Evicting Translations 21
L2C Data Evicting Translations 1374
L2C Dense regions hint from L2: 0
PSCL5 TOTAL     ACCESS:       3758  HIT:       3758  MISS:          0  HIT %:        100  MISS %:          0   MPKI: 0
PSCL5 LOAD TRANSLATION ACCESS:       3758  HIT:       3758  MISS:          0  HIT %:        100  MISS %:          0   MPKI: 0
PSCL5 PREFETCH  REQUESTED:          0  ISSUED:          0  USEFUL:          0  USELESS:          0
PSCL5 USEFUL LOAD PREFETCHES:          0 PREFETCH ISSUED TO LOWER LEVEL:          0  ACCURACY: -nan
PSCL5 TIMELY PREFETCHES:          0 LATE PREFETCHES: 0 DROPPED PREFETCHES: 0
PSCL5 PREFETCHES SAME FILL-ORIGIN LEVEL: 0 DIFFERENT FILL-ORIGIN LEVEL: 0

PSCL4 TOTAL     ACCESS:       3709  HIT:       3704  MISS:          5  HIT %:    99.8652  MISS %:   0.134807   MPKI: 0.0001
PSCL4 LOAD TRANSLATION ACCESS:       3709  HIT:       3704  MISS:          5  HIT %:    99.8652  MISS %:   0.134807   MPKI: 0.0001
PSCL4 PREFETCH  REQUESTED:          0  ISSUED:          0  USEFUL:          0  USELESS:          0
PSCL4 USEFUL LOAD PREFETCHES:          0 PREFETCH ISSUED TO LOWER LEVEL:          0  ACCURACY: -nan
PSCL4 TIMELY PREFETCHES:          0 LATE PREFETCHES: 0 DROPPED PREFETCHES: 0
PSCL4 PREFETCHES SAME FILL-ORIGIN LEVEL: 0 DIFFERENT FILL-ORIGIN LEVEL: 0

PSCL3 TOTAL     ACCESS:       3744  HIT:       3732  MISS:         12  HIT %:    99.6795  MISS %:   0.320513   MPKI: 0.00024
PSCL3 LOAD TRANSLATION ACCESS:       3744  HIT:       3732  MISS:         12  HIT %:    99.6795  MISS %:   0.320513   MPKI: 0.00024
PSCL3 PREFETCH  REQUESTED:          0  ISSUED:          0  USEFUL:          0  USELESS:          0
PSCL3 USEFUL LOAD PREFETCHES:          0 PREFETCH ISSUED TO LOWER LEVEL:          0  ACCURACY: -nan
PSCL3 TIMELY PREFETCHES:          0 LATE PREFETCHES: 0 DROPPED PREFETCHES: 0
PSCL3 PREFETCHES SAME FILL-ORIGIN LEVEL: 0 DIFFERENT FILL-ORIGIN LEVEL: 0

PSCL2 TOTAL     ACCESS:       3758  HIT:       3573  MISS:        185  HIT %:    95.0772  MISS %:    4.92283   MPKI: 0.0037
PSCL2 LOAD TRANSLATION ACCESS:       3758  HIT:       3573  MISS:        185  HIT %:    95.0772  MISS %:    4.92283   MPKI: 0.0037
PSCL2 PREFETCH  REQUESTED:          0  ISSUED:          0  USEFUL:          0  USELESS:          0
PSCL2 USEFUL LOAD PREFETCHES:          0 PREFETCH ISSUED TO LOWER LEVEL:          0  ACCURACY: -nan
PSCL2 TIMELY PREFETCHES:          0 LATE PREFETCHES: 0 DROPPED PREFETCHES: 0
PSCL2 PREFETCHES SAME FILL-ORIGIN LEVEL: 0 DIFFERENT FILL-ORIGIN LEVEL: 0

LLC TOTAL     ACCESS:     273639  HIT:     170162  MISS:     103477  HIT %:    62.1848  MISS %:    37.8152   MPKI: 2.06954
LLC LOAD      ACCESS:      76562  HIT:      46893  MISS:      29669  HIT %:    61.2484  MISS %:    38.7516   MPKI: 0.59338
LLC RFO       ACCESS:      37156  HIT:       5416  MISS:      31740  HIT %:    14.5764  MISS %:    85.4236   MPKI: 0.6348
LLC PREFETCH  ACCESS:      90818  HIT:      51635  MISS:      39183  HIT %:    56.8555  MISS %:    43.1445   MPKI: 0.78366
LLC WRITEBACK ACCESS:      67478  HIT:      65840  MISS:       1638  HIT %:    97.5725  MISS %:    2.42746   MPKI: 0.03276
LLC LOAD TRANSLATION ACCESS:       1625  HIT:        378  MISS:       1247  HIT %:    23.2615  MISS %:    76.7385   MPKI: 0.02494
LLC PREFETCH  REQUESTED:          0  ISSUED:          0  USEFUL:       4622  USELESS:      30231
LLC USEFUL LOAD PREFETCHES:       4622 PREFETCH ISSUED TO LOWER LEVEL:      39183  ACCURACY: 11.7959
LLC TIMELY PREFETCHES:       4622 LATE PREFETCHES: 0 DROPPED PREFETCHES: 0
LLC PREFETCHES SAME FILL-ORIGIN LEVEL: 0 DIFFERENT FILL-ORIGIN LEVEL: 0
LLC AVERAGE MISS LATENCY: 164.81 cycles
LLC RQ	ACCESS:     115343	FORWARD:          0	MERGED:          0	TO_CACHE:     115343
LLC WQ	ACCESS:      67478	FORWARD:          1	MERGED:          0	TO_CACHE:      67478
LLC PQ	ACCESS:      90819	FORWARD:          0	MERGED:          0	TO_CACHE:      90818

LLC Dense regions hint to LLC: 0

RAW hits: 729393
Loads Generated: 14941095
Loads sent to L1D: 14211697
Stores Generated: 4262313
Stores sent to L1D: 4262314
Major fault: 0 Minor fault: 3373
Allocated PAGES: 3373

stream: 
stream:times selected: 1733470
stream:pref_filled: 322138
stream:pref_useful: 62850
stream:pref_late: 4422
stream:misses: 47216
stream:misses_by_poll: 0

CS: 
CS:times selected: 204071
CS:pref_filled: 120432
CS:pref_useful: 101002
CS:pref_late: 3103
CS:misses: 14176
CS:misses_by_poll: 40

CPLX: 
CPLX:times selected: 1521501
CPLX:pref_filled: 101554
CPLX:pref_useful: 18578
CPLX:pref_late: 2413
CPLX:misses: 198103
CPLX:misses_by_poll: 164

NL_L1: 
NL:times selected: 9551
NL:pref_filled: 2012
NL:pref_useful: 460
NL:pref_late: 26
NL:misses: 1631
NL:misses_by_poll: 0

total selections: 3468593
total_filled: 495421
total_useful: 165582
total_late: 13199
total_polluted: 204
total_misses_after_warmup: 656506
conflicts: 1944269
Degree Incremented Times: 27215
Degree Decremented Times: 173956

L1 IP Table Write Accesses: 8144674
L1 IP Table Read Accesses: 6200405
L1 RST Write Accesses: 1479583
L1 RST Read Accesses: 2959166
L1 CSPT Write Accesses: 1479583
L1 CSPT Read Accesses: 2761362
L1 RR Filter Tag Write Accesses: 1321932
L1 RR Filter Tag Read Accesses: 67751489
L1 IP Table Tag Write Accesses: 10961739
L1 IP Table Tag Read Accesses: 10961739
L1 RST Tag Write Accesses: 0
L1 RST Tag Read Accesses: 13497286
L1 RR Filter Write Accesses: 0
L1 RR Filter Read Accesses: 2456377
test: 581800
L2 IP Table Read Accesses: 1923777
L2 IP Table Write Accesses: 1779174
L2 IP Table Tag Read Accesses: 1100418
L2 IP Table Tag Write Accesses: 1100418

DRAM Statistics
 CHANNEL 0
 RQ ROW_BUFFER_HIT:      18085  ROW_BUFFER_MISS:      83752
 DBUS_CONGESTED:         77
 WQ ROW_BUFFER_HIT:      10947  ROW_BUFFER_MISS:      47162  FULL:          0

 AVG_CONGESTED_CYCLE: 5
 All warmup complete: 2
Channel 0 Bank busy for read cycles: 0
Channel 0 Bank busy for write cycles: 0
Channel 0
Rank 0
0banks busy for read cycles: 68501252
0banks busy for write cycles: 21017
1banks busy for read cycles: 5801001
1banks busy for write cycles: 2702806
2banks busy for read cycles: 1770524
2banks busy for write cycles: 813744
3banks busy for read cycles: 596999
3banks busy for write cycles: 457851
4banks busy for read cycles: 278894
4banks busy for write cycles: 275200
5banks busy for read cycles: 105190
5banks busy for write cycles: 190566
6banks busy for read cycles: 57486
6banks busy for write cycles: 150089
7banks busy for read cycles: 33068
7banks busy for write cycles: 166843
8banks busy for read cycles: 19307
8banks busy for write cycles: 320507

CPU 0 Branch Prediction Accuracy: 95.4787% MPKI: 8.10268 Average ROB Occupancy at Mispredict: 46.2362
Branch types
NOT_BRANCH: 41039511 82.079%
BRANCH_DIRECT_JUMP: 755928 1.51186%
BRANCH_INDIRECT: 348209 0.696418%
BRANCH_CONDITIONAL: 6447952 12.8959%
BRANCH_DIRECT_CALL: 451943 0.903886%
BRANCH_INDIRECT_CALL: 241100 0.4822%
BRANCH_RETURN: 715498 1.431%
BRANCH_OTHER: 0 0%

@sumon_overall_L1D    165582     12351    329709    495421   2643135   2643392
@Sumon_Early_by_class_L1D     52181     96713     15227        17
@Sumon_Late_by_class_L1D      3734      3091      2337        17

@Sumon_Early_by_cycle_L1D     73604     37265     10305     12173      2988      9399      5093      5592      3503      3396      1438       826
@Sumon_Late_by_cycle_L1D     11248       966       128         9         0         0         0         0         0         0         0         0
@Sumon_Early_stream_L1D     24609      6779      4147      2859      1043      4046      1971      1831      1869      1720       791       516
@Sumon_Early_CS_L1D     44485     27606      4630      8785      1424      3802      2249      2598       574       426        82        52
@Sumon_Early_CPLX_L1D      4155      2669      1254       475       483      1414       793      1086       979      1135       531       253
@Sumon_Late_stream_L1D      3028       662        39         5         0         0         0         0         0         0         0         0
@Sumon_Late_CS_L1D      2761       251        78         1         0         0         0         0         0         0         0         0
@Sumon_Late_CPLX_L1D      2287        36        11         3         0         0         0         0         0         0         0         0
@sumon_overall_L2C     16738       587     72019     90232    516110    516122
@Sumon_Early_by_class_L2C      5231      2534      2387         0
@Sumon_Late_by_class_L2C         0       174         0         0

@Sumon_Early_by_cycle_L2C       979       511       597       270       256      1209       541       558       515      1274      1637      8391
@Sumon_Late_by_cycle_L2C       328       247        12         0         0         0         0         0         0         0         0         0
@Sumon_Early_stream_L2C         0         0         0         0         0         0         8        20        63       246       637      4257
@Sumon_Early_CS_L2C       147       113       174        84        85       174       126       116       130       156       201      1028
@Sumon_Early_CPLX_L2C         0         0         0         0         0         0         0        10        29       121       289      1938
@Sumon_Late_stream_L2C         0         0         0         0         0         0         0         0         0         0         0         0
@Sumon_Late_CS_L2C        91        78         5         0         0         0         0         0         0         0         0         0
@Sumon_Late_CPLX_L2C         0         0         0         0         0         0         0         0         0         0         0         0
DRAM PAGES: 1048576
Allocated PAGES: 3373
