
*** ChampSim Multicore Out-of-Order Simulator ***

Warmup Instructions: 10000000
Simulation Instructions: 50000000
Number of CPUs: 1
LLC sets: 2048
LLC ways: 16
Off-chip DRAM Size: 4096 MB Channels: 1 Width: 64-bit Data Rate: 6400 MT/s
CPU 0 runs traces/clientserver/client_002.champsimtrace.xz
.xz
CPU 0 Bimodal branch predictor
BTB has LRU replacement policy
ITLB has LRU replacement policy
DTLB has LRU replacement policy
STLB has LRU replacement policy
L1I has LRU replacement policy
IP Table Entries: 256
L1D has LRU replacement policy
IP_Table L2 entries: 256
L2C has LRU replacement policy
Initialize DRRIP state for LLC
Heartbeat CPU 0 instructions: 10000000 cycles: 2814212 heartbeat IPC: 3.55339 cumulative IPC: 3.55339 (Simulation time: 0 hr 16 min 56 sec) 

Warmup complete CPU 0 instructions: 10000004 cycles: 2814213 (Simulation time: 0 hr 16 min 56 sec) 

Heartbeat CPU 0 instructions: 20000002 cycles: 17893306 heartbeat IPC: 0.66317 cumulative IPC: 0.66317 (Simulation time: 0 hr 32 min 23 sec) 
Heartbeat CPU 0 instructions: 30000001 cycles: 33115009 heartbeat IPC: 0.656957 cumulative IPC: 0.660049 (Simulation time: 0 hr 47 min 42 sec) 
Heartbeat CPU 0 instructions: 40000002 cycles: 48463828 heartbeat IPC: 0.651516 cumulative IPC: 0.65718 (Simulation time: 1 hr 3 min 13 sec) 
Heartbeat CPU 0 instructions: 50000000 cycles: 63473452 heartbeat IPC: 0.666239 cumulative IPC: 0.659421 (Simulation time: 1 hr 18 min 31 sec) 
Heartbeat CPU 0 instructions: 60000001 cycles: 78638301 heartbeat IPC: 0.65942 cumulative IPC: 0.659421 (Simulation time: 1 hr 33 min 42 sec) 
Finished CPU 0 instructions: 50000002 cycles: 75824098 cumulative IPC: 0.659421 (Simulation time: 1 hr 33 min 42 sec) 

ChampSim completed all CPUs

Region of Interest Statistics

CPU 0 cumulative IPC: 0.659421 instructions: 50000002 cycles: 75824098
ITLB TOTAL     ACCESS:    8437522  HIT:    8341696  MISS:      95826  HIT %:    98.8643  MISS %:    1.13571   MPKI: 1.91652
ITLB LOAD TRANSLATION ACCESS:    8437522  HIT:    8341696  MISS:      95826  HIT %:    98.8643  MISS %:    1.13571   MPKI: 1.91652
ITLB PREFETCH  REQUESTED:          0  ISSUED:          0  USEFUL:          0  USELESS:          0
ITLB USEFUL LOAD PREFETCHES:          0 PREFETCH ISSUED TO LOWER LEVEL:          0  ACCURACY: -nan
ITLB TIMELY PREFETCHES:          0 LATE PREFETCHES: 0 DROPPED PREFETCHES: 0
ITLB PREFETCHES SAME FILL-ORIGIN LEVEL: 0 DIFFERENT FILL-ORIGIN LEVEL: 0
ITLB AVERAGE MISS LATENCY: 9.54716 cycles
ITLB RQ	ACCESS:   10238298	FORWARD:          0	MERGED:    1770808	TO_CACHE:    8467490

DTLB TOTAL     ACCESS:   10596970  HIT:   10440112  MISS:     156858  HIT %:    98.5198  MISS %:    1.48022   MPKI: 3.13716
DTLB LOAD TRANSLATION ACCESS:   10596970  HIT:   10440112  MISS:     156858  HIT %:    98.5198  MISS %:    1.48022   MPKI: 3.13716
DTLB PREFETCH  REQUESTED:          0  ISSUED:          0  USEFUL:          0  USELESS:          0
DTLB USEFUL LOAD PREFETCHES:          0 PREFETCH ISSUED TO LOWER LEVEL:          0  ACCURACY: -nan
DTLB TIMELY PREFETCHES:          0 LATE PREFETCHES: 0 DROPPED PREFETCHES: 0
DTLB PREFETCHES SAME FILL-ORIGIN LEVEL: 0 DIFFERENT FILL-ORIGIN LEVEL: 0
DTLB AVERAGE MISS LATENCY: 10.9231 cycles
DTLB RQ	ACCESS:   14117861	FORWARD:          0	MERGED:    3504902	TO_CACHE:   10612959

STLB TOTAL     ACCESS:     504961  HIT:     496626  MISS:       8335  HIT %:    98.3494  MISS %:    1.65062   MPKI: 0.1667
STLB LOAD TRANSLATION ACCESS:     252684  HIT:     244350  MISS:       8334  HIT %:    96.7018  MISS %:    3.29819   MPKI: 0.16668
STLB TRANSLATION FROM L1D PREFETCHER ACCESS:     252277  HIT:     252276  MISS:          1  HIT %:    99.9996  MISS %: 0.00039639   MPKI: 2e-05
STLB PREFETCH  REQUESTED:          0  ISSUED:          0  USEFUL:          1  USELESS:          0
STLB USEFUL LOAD PREFETCHES:          1 PREFETCH ISSUED TO LOWER LEVEL:          0  ACCURACY: inf
STLB TIMELY PREFETCHES:          1 LATE PREFETCHES: 0 DROPPED PREFETCHES: 0
STLB PREFETCHES SAME FILL-ORIGIN LEVEL: 0 DIFFERENT FILL-ORIGIN LEVEL: 0
STLB AVERAGE MISS LATENCY: 41.3966 cycles
STLB RQ	ACCESS:     564819	FORWARD:          0	MERGED:      59857	TO_CACHE:     504962

STLB Hit, L1D data hit: 0
STLB Hit, L2C data hit: 0
STLB Hit, LLC data hit: 0
STLB Hit, LLC data miss: 0
STLB STLB hints to L2: 0
L1D TOTAL     ACCESS:   14207685  HIT:   13938627  MISS:     269058  HIT %:    98.1063  MISS %:    1.89375   MPKI: 5.38116
L1D LOAD      ACCESS:    7420058  HIT:    7307598  MISS:     112460  HIT %:    98.4844  MISS %:    1.51562   MPKI: 2.2492
L1D RFO       ACCESS:    6479089  HIT:    6384815  MISS:      94274  HIT %:    98.5449  MISS %:    1.45505   MPKI: 1.88548
L1D PREFETCH  ACCESS:     308538  HIT:     246214  MISS:      62324  HIT %:    79.8002  MISS %:    20.1998   MPKI: 1.24648
L1D PREFETCH  REQUESTED:     624988  ISSUED:     624988  USEFUL:      31589  USELESS:      30710
L1D USEFUL LOAD PREFETCHES:      31589 PREFETCH ISSUED TO LOWER LEVEL:      63866  ACCURACY: 49.4614
L1D TIMELY PREFETCHES:      31589 LATE PREFETCHES: 1323 DROPPED PREFETCHES: 0
L1D PREFETCHES SAME FILL-ORIGIN LEVEL: 63866 DIFFERENT FILL-ORIGIN LEVEL: 0
L1D AVERAGE MISS LATENCY: 234964 cycles
L1D RQ	ACCESS:   11684458	FORWARD:          0	MERGED:    4073480	TO_CACHE:    7426562
L1D WQ	ACCESS:    6853195	FORWARD:     185134	MERGED:     161896	TO_CACHE:    6691299
L1D PQ	ACCESS:     312853	FORWARD:          0	MERGED:          0	TO_CACHE:     312135

L1D UNIQUE REGIONS ACCESSED: 0
L1D REGIONS CONFLICTS: 0
L1D Cross Page Prefetch Requests: 0
L1D Same Page Prefetch Requests: 381795
L1D ROI Sum of L1D PQ occupancy: 4060650
L1D PREFETCHES PUSHED FROM L2C: 0
L1I TOTAL     ACCESS:   10140215  HIT:    9673158  MISS:     467057  HIT %:     95.394  MISS %:    4.60599   MPKI: 9.34114
L1I LOAD      ACCESS:   10140215  HIT:    9673158  MISS:     467057  HIT %:     95.394  MISS %:    4.60599   MPKI: 9.34114
L1I PREFETCH  REQUESTED:          0  ISSUED:          0  USEFUL:          0  USELESS:          0
L1I USEFUL LOAD PREFETCHES:          0 PREFETCH ISSUED TO LOWER LEVEL:          0  ACCURACY: -nan
L1I TIMELY PREFETCHES:          0 LATE PREFETCHES: 0 DROPPED PREFETCHES: 0
L1I PREFETCHES SAME FILL-ORIGIN LEVEL: 0 DIFFERENT FILL-ORIGIN LEVEL: 0
L1I AVERAGE MISS LATENCY: 20.8535 cycles
L1I RQ	ACCESS:   15108015	FORWARD:          0	MERGED:    4869717	TO_CACHE:   10238298

BTB TOTAL     ACCESS:    6796237  HIT:    6165045  MISS:     631192  HIT %:    90.7126  MISS %:    9.28737   MPKI: 12.6238
BTB BRANCH_DIRECT_JUMP	ACCESS:     517874  HIT:     500004  MISS:      17870
BTB BRANCH_INDIRECT	ACCESS:     114556  HIT:      57356  MISS:      57200
BTB BRANCH_CONDITIONAL	ACCESS:    3999865  HIT:    3947993  MISS:      51872
BTB BRANCH_DIRECT_CALL	ACCESS:     959047  HIT:     921975  MISS:      37072
BTB BRANCH_INDIRECT_CALL	ACCESS:     122815  HIT:      95300  MISS:      27515
BTB BRANCH_RETURN	ACCESS:    1082080  HIT:     642417  MISS:     439663
BTB BRANCH_OTHER ACCESS:          0  HIT:          0  MISS:          0

L2C TOTAL     ACCESS:     973152  HIT:     737041  MISS:     236111  HIT %:    75.7375  MISS %:    24.2625   MPKI: 4.72222
L2C LOAD      ACCESS:     578193  HIT:     458964  MISS:     119229  HIT %:     79.379  MISS %:     20.621   MPKI: 2.38458
L2C DATA LOAD MPKI: 0.57988
L2C INSTRUCTION LOAD MPKI: 1.8047
L2C RFO       ACCESS:      94053  HIT:      24251  MISS:      69802  HIT %:    25.7844  MISS %:    74.2156   MPKI: 1.39604
L2C PREFETCH  ACCESS:     173886  HIT:     128705  MISS:      45181  HIT %:    74.0169  MISS %:    25.9831   MPKI: 0.90362
L2C DATA PREFETCH MPKI: 0.90362
L2C INSTRUCTION PREFETCH MPKI: 0
L2C WRITEBACK ACCESS:     118503  HIT:     118149  MISS:        354  HIT %:    99.7013  MISS %:   0.298727   MPKI: 0.00708
L2C LOAD TRANSLATION ACCESS:       8516  HIT:       6971  MISS:       1545  HIT %:    81.8577  MISS %:    18.1423   MPKI: 0.0309
L2C TRANSLATION FROM L1D PREFETCHER ACCESS:          1  HIT:          1  MISS:          0  HIT %:        100  MISS %:          0   MPKI: 0
L2C PREFETCH  REQUESTED:     120982  ISSUED:     120982  USEFUL:       6784  USELESS:      39788
L2C USEFUL LOAD PREFETCHES:       6784 PREFETCH ISSUED TO LOWER LEVEL:      45447  ACCURACY: 14.9273
L2C TIMELY PREFETCHES:       6784 LATE PREFETCHES: 266 DROPPED PREFETCHES: 0
L2C PREFETCHES SAME FILL-ORIGIN LEVEL: 26789 DIFFERENT FILL-ORIGIN LEVEL: 0
L2C AVERAGE MISS LATENCY: 60.2549 cycles
L2C RQ	ACCESS:     680766	FORWARD:          0	MERGED:          0	TO_CACHE:     680763
L2C WQ	ACCESS:     118503	FORWARD:          6	MERGED:          0	TO_CACHE:     118503
L2C PQ	ACCESS:     184848	FORWARD:          0	MERGED:       8830	TO_CACHE:     176015

L2C Instructions Evicting Data 56203
L2C Translations Evicting Data 928
L2C Data Evicting Data 87369
L2C Instructions Evicting Instructions 33411
L2C Translations Evicting Instructions 598
L2C Data Evicting Instructions 55639
L2C Instructions Evicting Translations 621
L2C Translations Evicting Translations 19
L2C Data Evicting Translations 969
L2C Dense regions hint from L2: 0
PSCL5 TOTAL     ACCESS:       8335  HIT:       8335  MISS:          0  HIT %:        100  MISS %:          0   MPKI: 0
PSCL5 LOAD TRANSLATION ACCESS:       8334  HIT:       8334  MISS:          0  HIT %:        100  MISS %:          0   MPKI: 0
PSCL5 TRANSLATION FROM L1D PREFETCHER ACCESS:          1  HIT:          1  MISS:          0  HIT %:        100  MISS %:          0   MPKI: 0
PSCL5 PREFETCH  REQUESTED:          0  ISSUED:          0  USEFUL:          0  USELESS:          0
PSCL5 USEFUL LOAD PREFETCHES:          0 PREFETCH ISSUED TO LOWER LEVEL:          0  ACCURACY: -nan
PSCL5 TIMELY PREFETCHES:          0 LATE PREFETCHES: 0 DROPPED PREFETCHES: 0
PSCL5 PREFETCHES SAME FILL-ORIGIN LEVEL: 0 DIFFERENT FILL-ORIGIN LEVEL: 0

PSCL4 TOTAL     ACCESS:       8335  HIT:       8335  MISS:          0  HIT %:        100  MISS %:          0   MPKI: 0
PSCL4 LOAD TRANSLATION ACCESS:       8334  HIT:       8334  MISS:          0  HIT %:        100  MISS %:          0   MPKI: 0
PSCL4 TRANSLATION FROM L1D PREFETCHER ACCESS:          1  HIT:          1  MISS:          0  HIT %:        100  MISS %:          0   MPKI: 0
PSCL4 PREFETCH  REQUESTED:          0  ISSUED:          0  USEFUL:          0  USELESS:          0
PSCL4 USEFUL LOAD PREFETCHES:          0 PREFETCH ISSUED TO LOWER LEVEL:          0  ACCURACY: -nan
PSCL4 TIMELY PREFETCHES:          0 LATE PREFETCHES: 0 DROPPED PREFETCHES: 0
PSCL4 PREFETCHES SAME FILL-ORIGIN LEVEL: 0 DIFFERENT FILL-ORIGIN LEVEL: 0

PSCL3 TOTAL     ACCESS:       8312  HIT:       8306  MISS:          6  HIT %:    99.9278  MISS %:  0.0721848   MPKI: 0.00012
PSCL3 LOAD TRANSLATION ACCESS:       8311  HIT:       8305  MISS:          6  HIT %:    99.9278  MISS %:  0.0721935   MPKI: 0.00012
PSCL3 TRANSLATION FROM L1D PREFETCHER ACCESS:          1  HIT:          1  MISS:          0  HIT %:        100  MISS %:          0   MPKI: 0
PSCL3 PREFETCH  REQUESTED:          0  ISSUED:          0  USEFUL:          0  USELESS:          0
PSCL3 USEFUL LOAD PREFETCHES:          0 PREFETCH ISSUED TO LOWER LEVEL:          0  ACCURACY: -nan
PSCL3 TIMELY PREFETCHES:          0 LATE PREFETCHES: 0 DROPPED PREFETCHES: 0
PSCL3 PREFETCHES SAME FILL-ORIGIN LEVEL: 0 DIFFERENT FILL-ORIGIN LEVEL: 0

PSCL2 TOTAL     ACCESS:       8335  HIT:       8156  MISS:        179  HIT %:    97.8524  MISS %:    2.14757   MPKI: 0.00358
PSCL2 LOAD TRANSLATION ACCESS:       8334  HIT:       8155  MISS:        179  HIT %:    97.8522  MISS %:    2.14783   MPKI: 0.00358
PSCL2 TRANSLATION FROM L1D PREFETCHER ACCESS:          1  HIT:          1  MISS:          0  HIT %:        100  MISS %:          0   MPKI: 0
PSCL2 PREFETCH  REQUESTED:          0  ISSUED:          0  USEFUL:          0  USELESS:          0
PSCL2 USEFUL LOAD PREFETCHES:          0 PREFETCH ISSUED TO LOWER LEVEL:          0  ACCURACY: -nan
PSCL2 TIMELY PREFETCHES:          0 LATE PREFETCHES: 0 DROPPED PREFETCHES: 0
PSCL2 PREFETCHES SAME FILL-ORIGIN LEVEL: 0 DIFFERENT FILL-ORIGIN LEVEL: 0

LLC TOTAL     ACCESS:     314394  HIT:     258631  MISS:      55763  HIT %:    82.2633  MISS %:    17.7367   MPKI: 1.11526
LLC LOAD      ACCESS:     119018  HIT:     112425  MISS:       6593  HIT %:    94.4605  MISS %:     5.5395   MPKI: 0.13186
LLC RFO       ACCESS:      69747  HIT:      37906  MISS:      31841  HIT %:    54.3479  MISS %:    45.6521   MPKI: 0.63682
LLC PREFETCH  ACCESS:      45447  HIT:      28994  MISS:      16453  HIT %:    63.7974  MISS %:    36.2026   MPKI: 0.32906
LLC WRITEBACK ACCESS:      78637  HIT:      77986  MISS:        651  HIT %:    99.1721  MISS %:   0.827855   MPKI: 0.01302
LLC LOAD TRANSLATION ACCESS:       1545  HIT:       1320  MISS:        225  HIT %:    85.4369  MISS %:    14.5631   MPKI: 0.0045
LLC PREFETCH  REQUESTED:          0  ISSUED:          0  USEFUL:        613  USELESS:      14509
LLC USEFUL LOAD PREFETCHES:        613 PREFETCH ISSUED TO LOWER LEVEL:      16453  ACCURACY: 3.72576
LLC TIMELY PREFETCHES:        613 LATE PREFETCHES: 0 DROPPED PREFETCHES: 0
LLC PREFETCHES SAME FILL-ORIGIN LEVEL: 0 DIFFERENT FILL-ORIGIN LEVEL: 0
LLC AVERAGE MISS LATENCY: 127.846 cycles
LLC RQ	ACCESS:     190310	FORWARD:          0	MERGED:          0	TO_CACHE:     190310
LLC WQ	ACCESS:      78637	FORWARD:          0	MERGED:          0	TO_CACHE:      78637
LLC PQ	ACCESS:      45447	FORWARD:          0	MERGED:          0	TO_CACHE:      45447

LLC Dense regions hint to LLC: 0

RAW hits: 1458495
Loads Generated: 13142955
Loads sent to L1D: 11684458
Stores Generated: 6853201
Stores sent to L1D: 6853195
Major fault: 0 Minor fault: 2277
Allocated PAGES: 2277

stream: 
stream:times selected: 664941
stream:pref_filled: 31787
stream:pref_useful: 12900
stream:pref_late: 558
stream:misses: 3448
stream:misses_by_poll: 0

CS: 
CS:times selected: 97807
CS:pref_filled: 26035
CS:pref_useful: 21510
CS:pref_late: 484
CS:misses: 1519
CS:misses_by_poll: 8

CPLX: 
CPLX:times selected: 562915
CPLX:pref_filled: 17928
CPLX:pref_useful: 4161
CPLX:pref_late: 65
CPLX:misses: 14864
CPLX:misses_by_poll: 26

NL_L1: 
NL:times selected: 8229
NL:pref_filled: 299
NL:pref_useful: 146
NL:pref_late: 5
NL:misses: 246
NL:misses_by_poll: 0

total selections: 1333892
total_filled: 62324
total_useful: 31589
total_late: 1402
total_polluted: 34
total_misses_after_warmup: 118964
conflicts: 2207844
Degree Incremented Times: 62836
Degree Decremented Times: 40665

L1 IP Table Write Accesses: 4772036
L1 IP Table Read Accesses: 2564192
L1 RST Write Accesses: 555997
L1 RST Read Accesses: 1111994
L1 CSPT Write Accesses: 555997
L1 CSPT Read Accesses: 1027733
L1 RR Filter Tag Write Accesses: 312853
L1 RR Filter Tag Read Accesses: 24974702
L1 IP Table Tag Write Accesses: 7426562
L1 IP Table Tag Read Accesses: 7426562
L1 RST Tag Write Accesses: 0
L1 RST Tag Read Accesses: 5753177
L1 RR Filter Write Accesses: 0
L1 RR Filter Read Accesses: 967031
test: 147031
L2 IP Table Read Accesses: 271384
L2 IP Table Write Accesses: 274290
L2 IP Table Tag Read Accesses: 170145
L2 IP Table Tag Write Accesses: 170145

DRAM Statistics
 CHANNEL 0
 RQ ROW_BUFFER_HIT:      25709  ROW_BUFFER_MISS:      29403
 DBUS_CONGESTED:         21
 WQ ROW_BUFFER_HIT:       4022  ROW_BUFFER_MISS:      21304  FULL:          0

 AVG_CONGESTED_CYCLE: 4
 All warmup complete: 2
Channel 0 Bank busy for read cycles: 0
Channel 0 Bank busy for write cycles: 0
Channel 0
Rank 0
0banks busy for read cycles: 70110684
0banks busy for write cycles: 10638
1banks busy for read cycles: 2815475
1banks busy for write cycles: 1442413
2banks busy for read cycles: 412394
2banks busy for write cycles: 279708
3banks busy for read cycles: 115929
3banks busy for write cycles: 96872
4banks busy for read cycles: 83314
4banks busy for write cycles: 54635
5banks busy for read cycles: 52045
5banks busy for write cycles: 38960
6banks busy for read cycles: 53897
6banks busy for write cycles: 28736
7banks busy for read cycles: 42590
7banks busy for write cycles: 35003
8banks busy for read cycles: 61656
8banks busy for write cycles: 89150

CPU 0 Branch Prediction Accuracy: 94.7154% MPKI: 10.0037 Average ROB Occupancy at Mispredict: 32.2084
Branch types
NOT_BRANCH: 40534656 81.0693%
BRANCH_DIRECT_JUMP: 517874 1.03575%
BRANCH_INDIRECT: 114556 0.229112%
BRANCH_CONDITIONAL: 6668634 13.3373%
BRANCH_DIRECT_CALL: 959047 1.91809%
BRANCH_INDIRECT_CALL: 122815 0.24563%
BRANCH_RETURN: 1082080 2.16416%
BRANCH_OTHER: 0 0%

@sumon_overall_L1D     31589      1323     30710     62324    624988    624988
@Sumon_Early_by_class_L1D     10246     17419      3456         4
@Sumon_Late_by_class_L1D       506       471        56         4

@Sumon_Early_by_cycle_L1D      7333      4098      1496      1317      1090      3110      4661      1814      2055      2015      1672       928
@Sumon_Late_by_cycle_L1D      1136       161        26         0         0         0         0         0         0         0         0         0
@Sumon_Early_stream_L1D      1602       929       874       462       495      1418       608       909      1138      1113       338       360
@Sumon_Early_CS_L1D      5266      3009       441       609       358      1329      3840       530       542       359       929       207
@Sumon_Early_CPLX_L1D       352       118       148       225       215       319       200       357       365       471       352       334
@Sumon_Late_stream_L1D       460        46         0         0         0         0         0         0         0         0         0         0
@Sumon_Late_CS_L1D       335       111        25         0         0         0         0         0         0         0         0         0
@Sumon_Late_CPLX_L1D        53         2         1         0         0         0         0         0         0         0         0         0
@sumon_overall_L2C      6784       266     39788     45181    120982    120982
@Sumon_Early_by_class_L2C       670      1271       546         0
@Sumon_Late_by_class_L2C         0         8         0         0

@Sumon_Early_by_cycle_L2C       495       393       411       216       151       408       318       334       337       446       246      3029
@Sumon_Late_by_cycle_L2C       207        59         0         0         0         0         0         0         0         0         0         0
@Sumon_Early_stream_L2C         0         0         0         0         0         0         0         0         1         2        18       649
@Sumon_Early_CS_L2C        30        19        35        12        23       118       128        55       100       167        27       557
@Sumon_Early_CPLX_L2C         0         0         0         0         0         0         0         0         0         3         9       534
@Sumon_Late_stream_L2C         0         0         0         0         0         0         0         0         0         0         0         0
@Sumon_Late_CS_L2C         2         6         0         0         0         0         0         0         0         0         0         0
@Sumon_Late_CPLX_L2C         0         0         0         0         0         0         0         0         0         0         0         0
DRAM PAGES: 1048576
Allocated PAGES: 2277
