
*** ChampSim Multicore Out-of-Order Simulator ***

Warmup Instructions: 10000000
Simulation Instructions: 50000000
Number of CPUs: 1
LLC sets: 2048
LLC ways: 16
Off-chip DRAM Size: 4096 MB Channels: 1 Width: 64-bit Data Rate: 6400 MT/s
CPU 0 runs traces/clientserver/server_014.champsimtrace.xz
.xz
CPU 0 Bimodal branch predictor
BTB has LRU replacement policy
ITLB has LRU replacement policy
DTLB has LRU replacement policy
STLB has LRU replacement policy
L1I has LRU replacement policy
IP Table Entries: 256
L1D has LRU replacement policy
IP_Table L2 entries: 256
L2C has LRU replacement policy
Initialize DRRIP state for LLC
Heartbeat CPU 0 instructions: 10000003 cycles: 2819127 heartbeat IPC: 3.5472 cumulative IPC: 3.5472 (Simulation time: 0 hr 17 min 44 sec) 

Warmup complete CPU 0 instructions: 10000003 cycles: 2819127 (Simulation time: 0 hr 17 min 44 sec) 

Heartbeat CPU 0 instructions: 20000000 cycles: 20292283 heartbeat IPC: 0.572306 cumulative IPC: 0.572306 (Simulation time: 0 hr 35 min 6 sec) 
Heartbeat CPU 0 instructions: 30000002 cycles: 36533994 heartbeat IPC: 0.615699 cumulative IPC: 0.59321 (Simulation time: 0 hr 51 min 27 sec) 
Heartbeat CPU 0 instructions: 40000000 cycles: 52583736 heartbeat IPC: 0.623063 cumulative IPC: 0.602838 (Simulation time: 1 hr 7 min 54 sec) 
Heartbeat CPU 0 instructions: 50000000 cycles: 68634567 heartbeat IPC: 0.623021 cumulative IPC: 0.60776 (Simulation time: 1 hr 24 min 21 sec) 
Heartbeat CPU 0 instructions: 60000000 cycles: 84688949 heartbeat IPC: 0.622883 cumulative IPC: 0.610726 (Simulation time: 1 hr 39 min 19 sec) 
Finished CPU 0 instructions: 50000001 cycles: 81869828 cumulative IPC: 0.610726 (Simulation time: 1 hr 39 min 19 sec) 

ChampSim completed all CPUs

Region of Interest Statistics

CPU 0 cumulative IPC: 0.610726 instructions: 50000001 cycles: 81869828
ITLB TOTAL     ACCESS:    8671484  HIT:    8343386  MISS:     328098  HIT %:    96.2164  MISS %:    3.78364   MPKI: 6.56196
ITLB LOAD TRANSLATION ACCESS:    8671484  HIT:    8343386  MISS:     328098  HIT %:    96.2164  MISS %:    3.78364   MPKI: 6.56196
ITLB PREFETCH  REQUESTED:          0  ISSUED:          0  USEFUL:          0  USELESS:          0
ITLB USEFUL LOAD PREFETCHES:          0 PREFETCH ISSUED TO LOWER LEVEL:          0  ACCURACY: -nan
ITLB TIMELY PREFETCHES:          0 LATE PREFETCHES: 0 DROPPED PREFETCHES: 0
ITLB PREFETCHES SAME FILL-ORIGIN LEVEL: 0 DIFFERENT FILL-ORIGIN LEVEL: 0
ITLB AVERAGE MISS LATENCY: 9.20968 cycles
ITLB RQ	ACCESS:   10151754	FORWARD:          0	MERGED:    1359272	TO_CACHE:    8792482

DTLB TOTAL     ACCESS:   11672065  HIT:   11493104  MISS:     178961  HIT %:    98.4668  MISS %:    1.53324   MPKI: 3.57922
DTLB LOAD TRANSLATION ACCESS:   11672065  HIT:   11493104  MISS:     178961  HIT %:    98.4668  MISS %:    1.53324   MPKI: 3.57922
DTLB PREFETCH  REQUESTED:          0  ISSUED:          0  USEFUL:          0  USELESS:          0
DTLB USEFUL LOAD PREFETCHES:          0 PREFETCH ISSUED TO LOWER LEVEL:          0  ACCURACY: -nan
DTLB TIMELY PREFETCHES:          0 LATE PREFETCHES: 0 DROPPED PREFETCHES: 0
DTLB PREFETCHES SAME FILL-ORIGIN LEVEL: 0 DIFFERENT FILL-ORIGIN LEVEL: 0
DTLB AVERAGE MISS LATENCY: 10.4348 cycles
DTLB RQ	ACCESS:   16195733	FORWARD:          0	MERGED:    4513830	TO_CACHE:   11681903

STLB TOTAL     ACCESS:     902996  HIT:     901444  MISS:       1552  HIT %:    99.8281  MISS %:   0.171872   MPKI: 0.03104
STLB LOAD TRANSLATION ACCESS:     507059  HIT:     505507  MISS:       1552  HIT %:    99.6939  MISS %:   0.306079   MPKI: 0.03104
STLB TRANSLATION FROM L1D PREFETCHER ACCESS:     395937  HIT:     395937  MISS:          0  HIT %:        100  MISS %:          0   MPKI: 0
STLB PREFETCH  REQUESTED:          0  ISSUED:          0  USEFUL:          0  USELESS:          0
STLB USEFUL LOAD PREFETCHES:          0 PREFETCH ISSUED TO LOWER LEVEL:          0  ACCURACY: -nan
STLB TIMELY PREFETCHES:          0 LATE PREFETCHES: 0 DROPPED PREFETCHES: 0
STLB PREFETCHES SAME FILL-ORIGIN LEVEL: 0 DIFFERENT FILL-ORIGIN LEVEL: 0
STLB AVERAGE MISS LATENCY: 201.773 cycles
STLB RQ	ACCESS:    1004787	FORWARD:          0	MERGED:     101791	TO_CACHE:     902996

STLB Hit, L1D data hit: 0
STLB Hit, L2C data hit: 0
STLB Hit, LLC data hit: 0
STLB Hit, LLC data miss: 0
STLB STLB hints to L2: 0
L1D TOTAL     ACCESS:   16634666  HIT:   16576718  MISS:      57948  HIT %:    99.6516  MISS %:   0.348357   MPKI: 1.15896
L1D LOAD      ACCESS:    7589335  HIT:    7571430  MISS:      17905  HIT %:    99.7641  MISS %:   0.235923   MPKI: 0.3581
L1D RFO       ACCESS:    8556024  HIT:    8526353  MISS:      29671  HIT %:    99.6532  MISS %:   0.346785   MPKI: 0.59342
L1D PREFETCH  ACCESS:     489307  HIT:     478935  MISS:      10372  HIT %:    97.8803  MISS %:    2.11973   MPKI: 0.20744
L1D PREFETCH  REQUESTED:     997589  ISSUED:     997522  USEFUL:       6326  USELESS:       4186
L1D USEFUL LOAD PREFETCHES:       6326 PREFETCH ISSUED TO LOWER LEVEL:      15612  ACCURACY: 40.5201
L1D TIMELY PREFETCHES:       6326 LATE PREFETCHES: 5230 DROPPED PREFETCHES: 0
L1D PREFETCHES SAME FILL-ORIGIN LEVEL: 15612 DIFFERENT FILL-ORIGIN LEVEL: 0
L1D AVERAGE MISS LATENCY: 491252 cycles
L1D RQ	ACCESS:   11663871	FORWARD:          0	MERGED:    3877939	TO_CACHE:    7592243
L1D WQ	ACCESS:    8709360	FORWARD:     195755	MERGED:     105870	TO_CACHE:    8603490
L1D PQ	ACCESS:     499794	FORWARD:          0	MERGED:          0	TO_CACHE:     497728

L1D UNIQUE REGIONS ACCESSED: 0
L1D REGIONS CONFLICTS: 0
L1D Cross Page Prefetch Requests: 0
L1D Same Page Prefetch Requests: 670877
L1D ROI Sum of L1D PQ occupancy: 7001846
L1D PREFETCHES PUSHED FROM L2C: 0
L1I TOTAL     ACCESS:    9763979  HIT:    8177573  MISS:    1586406  HIT %:    83.7525  MISS %:    16.2475   MPKI: 31.7281
L1I LOAD      ACCESS:    9763979  HIT:    8177573  MISS:    1586406  HIT %:    83.7525  MISS %:    16.2475   MPKI: 31.7281
L1I PREFETCH  REQUESTED:          0  ISSUED:          0  USEFUL:          0  USELESS:          0
L1I USEFUL LOAD PREFETCHES:          0 PREFETCH ISSUED TO LOWER LEVEL:          0  ACCURACY: -nan
L1I TIMELY PREFETCHES:          0 LATE PREFETCHES: 0 DROPPED PREFETCHES: 0
L1I PREFETCHES SAME FILL-ORIGIN LEVEL: 0 DIFFERENT FILL-ORIGIN LEVEL: 0
L1I AVERAGE MISS LATENCY: 14.8304 cycles
L1I RQ	ACCESS:   14011134	FORWARD:          0	MERGED:    3859380	TO_CACHE:   10151754

BTB TOTAL     ACCESS:    5716816  HIT:    5260996  MISS:     455820  HIT %:    92.0267  MISS %:    7.97332   MPKI: 9.1164
BTB BRANCH_DIRECT_JUMP	ACCESS:     441887  HIT:     440766  MISS:       1121
BTB BRANCH_INDIRECT	ACCESS:       2325  HIT:       2200  MISS:        125
BTB BRANCH_CONDITIONAL	ACCESS:    2696688  HIT:    2692752  MISS:       3936
BTB BRANCH_DIRECT_CALL	ACCESS:    1164143  HIT:    1161178  MISS:       2965
BTB BRANCH_INDIRECT_CALL	ACCESS:     123824  HIT:     109162  MISS:      14662
BTB BRANCH_RETURN	ACCESS:    1287949  HIT:     854938  MISS:     433011
BTB BRANCH_OTHER ACCESS:          0  HIT:          0  MISS:          0

L2C TOTAL     ACCESS:    1690084  HIT:    1628216  MISS:      61868  HIT %:    96.3394  MISS %:    3.66065   MPKI: 1.23736
L2C LOAD      ACCESS:    1599081  HIT:    1582948  MISS:      16133  HIT %:    98.9911  MISS %:    1.00889   MPKI: 0.32266
L2C DATA LOAD MPKI: 0.14572
L2C INSTRUCTION LOAD MPKI: 0.17694
L2C RFO       ACCESS:      29661  HIT:        970  MISS:      28691  HIT %:    3.27029  MISS %:    96.7297   MPKI: 0.57382
L2C PREFETCH  ACCESS:      25646  HIT:       9286  MISS:      16360  HIT %:    36.2084  MISS %:    63.7916   MPKI: 0.3272
L2C DATA PREFETCH MPKI: 0.3272
L2C INSTRUCTION PREFETCH MPKI: 0
L2C WRITEBACK ACCESS:      34025  HIT:      34016  MISS:          9  HIT %:    99.9735  MISS %:  0.0264511   MPKI: 0.00018
L2C LOAD TRANSLATION ACCESS:       1671  HIT:        996  MISS:        675  HIT %:     59.605  MISS %:     40.395   MPKI: 0.0135
L2C PREFETCH  REQUESTED:      27077  ISSUED:      27032  USEFUL:       1366  USELESS:      16933
L2C USEFUL LOAD PREFETCHES:       1366 PREFETCH ISSUED TO LOWER LEVEL:      17703  ACCURACY: 7.71621
L2C TIMELY PREFETCHES:       1366 LATE PREFETCHES: 1343 DROPPED PREFETCHES: 0
L2C PREFETCHES SAME FILL-ORIGIN LEVEL: 9952 DIFFERENT FILL-ORIGIN LEVEL: 0
L2C AVERAGE MISS LATENCY: 178.952 cycles
L2C RQ	ACCESS:    1630413	FORWARD:          0	MERGED:          0	TO_CACHE:    1630413
L2C WQ	ACCESS:      34025	FORWARD:          0	MERGED:          0	TO_CACHE:      34025
L2C PQ	ACCESS:      42644	FORWARD:          0	MERGED:       8928	TO_CACHE:      33716

L2C Instructions Evicting Data 7545
L2C Translations Evicting Data 567
L2C Data Evicting Data 44804
L2C Instructions Evicting Instructions 1165
L2C Translations Evicting Instructions 94
L2C Data Evicting Instructions 7020
L2C Instructions Evicting Translations 90
L2C Translations Evicting Translations 5
L2C Data Evicting Translations 491
L2C Dense regions hint from L2: 0
PSCL5 TOTAL     ACCESS:       1552  HIT:       1552  MISS:          0  HIT %:        100  MISS %:          0   MPKI: 0
PSCL5 LOAD TRANSLATION ACCESS:       1552  HIT:       1552  MISS:          0  HIT %:        100  MISS %:          0   MPKI: 0
PSCL5 PREFETCH  REQUESTED:          0  ISSUED:          0  USEFUL:          0  USELESS:          0
PSCL5 USEFUL LOAD PREFETCHES:          0 PREFETCH ISSUED TO LOWER LEVEL:          0  ACCURACY: -nan
PSCL5 TIMELY PREFETCHES:          0 LATE PREFETCHES: 0 DROPPED PREFETCHES: 0
PSCL5 PREFETCHES SAME FILL-ORIGIN LEVEL: 0 DIFFERENT FILL-ORIGIN LEVEL: 0

PSCL4 TOTAL     ACCESS:       1113  HIT:       1103  MISS:         10  HIT %:    99.1015  MISS %:   0.898473   MPKI: 0.0002
PSCL4 LOAD TRANSLATION ACCESS:       1113  HIT:       1103  MISS:         10  HIT %:    99.1015  MISS %:   0.898473   MPKI: 0.0002
PSCL4 PREFETCH  REQUESTED:          0  ISSUED:          0  USEFUL:          0  USELESS:          0
PSCL4 USEFUL LOAD PREFETCHES:          0 PREFETCH ISSUED TO LOWER LEVEL:          0  ACCURACY: -nan
PSCL4 TIMELY PREFETCHES:          0 LATE PREFETCHES: 0 DROPPED PREFETCHES: 0
PSCL4 PREFETCHES SAME FILL-ORIGIN LEVEL: 0 DIFFERENT FILL-ORIGIN LEVEL: 0

PSCL3 TOTAL     ACCESS:       1438  HIT:       1427  MISS:         11  HIT %:     99.235  MISS %:   0.764951   MPKI: 0.00022
PSCL3 LOAD TRANSLATION ACCESS:       1438  HIT:       1427  MISS:         11  HIT %:     99.235  MISS %:   0.764951   MPKI: 0.00022
PSCL3 PREFETCH  REQUESTED:          0  ISSUED:          0  USEFUL:          0  USELESS:          0
PSCL3 USEFUL LOAD PREFETCHES:          0 PREFETCH ISSUED TO LOWER LEVEL:          0  ACCURACY: -nan
PSCL3 TIMELY PREFETCHES:          0 LATE PREFETCHES: 0 DROPPED PREFETCHES: 0
PSCL3 PREFETCHES SAME FILL-ORIGIN LEVEL: 0 DIFFERENT FILL-ORIGIN LEVEL: 0

PSCL2 TOTAL     ACCESS:       1552  HIT:       1393  MISS:        159  HIT %:    89.7552  MISS %:    10.2448   MPKI: 0.00318
PSCL2 LOAD TRANSLATION ACCESS:       1552  HIT:       1393  MISS:        159  HIT %:    89.7552  MISS %:    10.2448   MPKI: 0.00318
PSCL2 PREFETCH  REQUESTED:          0  ISSUED:          0  USEFUL:          0  USELESS:          0
PSCL2 USEFUL LOAD PREFETCHES:          0 PREFETCH ISSUED TO LOWER LEVEL:          0  ACCURACY: -nan
PSCL2 TIMELY PREFETCHES:          0 LATE PREFETCHES: 0 DROPPED PREFETCHES: 0
PSCL2 PREFETCHES SAME FILL-ORIGIN LEVEL: 0 DIFFERENT FILL-ORIGIN LEVEL: 0

LLC TOTAL     ACCESS:      92889  HIT:      40979  MISS:      51910  HIT %:    44.1161  MISS %:    55.8839   MPKI: 1.0382
LLC LOAD      ACCESS:      14796  HIT:       3526  MISS:      11270  HIT %:    23.8308  MISS %:    76.1692   MPKI: 0.2254
LLC RFO       ACCESS:      28685  HIT:       5223  MISS:      23462  HIT %:    18.2081  MISS %:    81.7919   MPKI: 0.46924
LLC PREFETCH  ACCESS:      17703  HIT:       1562  MISS:      16141  HIT %:    8.82336  MISS %:    91.1766   MPKI: 0.32282
LLC WRITEBACK ACCESS:      31030  HIT:      30477  MISS:        553  HIT %:    98.2179  MISS %:    1.78215   MPKI: 0.01106
LLC LOAD TRANSLATION ACCESS:        675  HIT:        191  MISS:        484  HIT %:    28.2963  MISS %:    71.7037   MPKI: 0.00968
LLC PREFETCH  REQUESTED:          0  ISSUED:          0  USEFUL:       3254  USELESS:      12279
LLC USEFUL LOAD PREFETCHES:       3254 PREFETCH ISSUED TO LOWER LEVEL:      16141  ACCURACY: 20.1598
LLC TIMELY PREFETCHES:       3254 LATE PREFETCHES: 0 DROPPED PREFETCHES: 0
LLC PREFETCHES SAME FILL-ORIGIN LEVEL: 0 DIFFERENT FILL-ORIGIN LEVEL: 0
LLC AVERAGE MISS LATENCY: 176.809 cycles
LLC RQ	ACCESS:      44156	FORWARD:          0	MERGED:          0	TO_CACHE:      44156
LLC WQ	ACCESS:      31030	FORWARD:          0	MERGED:          0	TO_CACHE:      31030
LLC PQ	ACCESS:      17703	FORWARD:          0	MERGED:          0	TO_CACHE:      17703

LLC Dense regions hint to LLC: 0

RAW hits: 1147550
Loads Generated: 12811420
Loads sent to L1D: 11663871
Stores Generated: 8709360
Stores sent to L1D: 8709360
Major fault: 0 Minor fault: 1998
Allocated PAGES: 1998

stream: 
stream:times selected: 1197446
stream:pref_filled: 9512
stream:pref_useful: 3263
stream:pref_late: 241
stream:misses: 882
stream:misses_by_poll: 0

CS: 
CS:times selected: 907886
CS:pref_filled: 5576
CS:pref_useful: 5401
CS:pref_late: 5033
CS:misses: 9314
CS:misses_by_poll: 8

CPLX: 
CPLX:times selected: 286547
CPLX:pref_filled: 1903
CPLX:pref_useful: 293
CPLX:pref_late: 21
CPLX:misses: 2914
CPLX:misses_by_poll: 2

NL_L1: 
NL:times selected: 4263
NL:pref_filled: 61
NL:pref_useful: 7
NL:pref_late: 1
NL:misses: 50
NL:misses_by_poll: 0

total selections: 2396142
total_filled: 10372
total_useful: 6326
total_late: 5394
total_polluted: 10
total_misses_after_warmup: 20817
conflicts: 3137199
Degree Incremented Times: 220
Degree Decremented Times: 1614

L1 IP Table Write Accesses: 4340941
L1 IP Table Read Accesses: 1203742
L1 RST Write Accesses: 1028278
L1 RST Read Accesses: 2056556
L1 CSPT Write Accesses: 1028278
L1 CSPT Read Accesses: 1267144
L1 RR Filter Tag Write Accesses: 499861
L1 RR Filter Tag Read Accesses: 108674498
L1 IP Table Tag Write Accesses: 7592247
L1 IP Table Tag Read Accesses: 7592247
L1 RST Tag Write Accesses: 0
L1 RST Tag Read Accesses: 7143620
L1 RR Filter Write Accesses: 0
L1 RR Filter Read Accesses: 3523607
test: 140356
L2 IP Table Read Accesses: 38116
L2 IP Table Write Accesses: 35731
L2 IP Table Tag Read Accesses: 22111
L2 IP Table Tag Write Accesses: 22111

DRAM Statistics
 CHANNEL 0
 RQ ROW_BUFFER_HIT:      28960  ROW_BUFFER_MISS:      22397
 DBUS_CONGESTED:         20
 WQ ROW_BUFFER_HIT:       3514  ROW_BUFFER_MISS:       9431  FULL:          0

 AVG_CONGESTED_CYCLE: 3
 All warmup complete: 2
Channel 0 Bank busy for read cycles: 0
Channel 0 Bank busy for write cycles: 0
Channel 0
Rank 0
0banks busy for read cycles: 79349760
0banks busy for write cycles: 1177
1banks busy for read cycles: 840829
1banks busy for write cycles: 192426
2banks busy for read cycles: 404116
2banks busy for write cycles: 115534
3banks busy for read cycles: 154226
3banks busy for write cycles: 76439
4banks busy for read cycles: 80711
4banks busy for write cycles: 52213
5banks busy for read cycles: 72071
5banks busy for write cycles: 36106
6banks busy for read cycles: 51996
6banks busy for write cycles: 32949
7banks busy for read cycles: 60583
7banks busy for write cycles: 39742
8banks busy for read cycles: 168176
8banks busy for write cycles: 140775

CPU 0 Branch Prediction Accuracy: 97.4648% MPKI: 4.28304 Average ROB Occupancy at Mispredict: 41.4294
Branch types
NOT_BRANCH: 41552502 83.105%
BRANCH_DIRECT_JUMP: 441887 0.883774%
BRANCH_INDIRECT: 2325 0.00465%
BRANCH_CONDITIONAL: 5427045 10.8541%
BRANCH_DIRECT_CALL: 1164143 2.32829%
BRANCH_INDIRECT_CALL: 123824 0.247648%
BRANCH_RETURN: 1287949 2.5759%
BRANCH_OTHER: 0 0%

@sumon_overall_L1D      6326      5230      4186     10372    997522    997589
@Sumon_Early_by_class_L1D       713      5345       231         0
@Sumon_Late_by_class_L1D        86      5027        21         0

@Sumon_Early_by_cycle_L1D      2403      1637      1305       135        82       163       103       136        96       130        64        72
@Sumon_Late_by_cycle_L1D      2313      1747      1072        87         8         3         0         0         0         0         0         0
@Sumon_Early_stream_L1D       116        72        69        25        18        72        49        63        51        85        31        62
@Sumon_Early_CS_L1D      2255      1547      1224        96        57        67        25        44        15         9         6         0
@Sumon_Early_CPLX_L1D        18        13         7        13         7        23        25        26        29        35        25        10
@Sumon_Late_stream_L1D        45        40         1         0         0         0         0         0         0         0         0         0
@Sumon_Late_CS_L1D      2175      1686      1068        87         8         3         0         0         0         0         0         0
@Sumon_Late_CPLX_L1D         5        14         2         0         0         0         0         0         0         0         0         0
@sumon_overall_L2C      1366      1343     16933     16360     27032     27077
@Sumon_Early_by_class_L2C       192       526        66         0
@Sumon_Late_by_class_L2C         0      1271         0         0

@Sumon_Early_by_cycle_L2C       265       174       140        28        13        62        37        30        32        89        92       404
@Sumon_Late_by_cycle_L2C       718       411       162        39         6         7         0         0         0         0         0         0
@Sumon_Early_stream_L2C         0         0         0         0         0         0         0         0         0         8        15       169
@Sumon_Early_CS_L2C       193       129       104         6         0        11         5         5         9        15        24        25
@Sumon_Early_CPLX_L2C         0         0         0         0         0         0         0         0         0         3         8        55
@Sumon_Late_stream_L2C         0         0         0         0         0         0         0         0         0         0         0         0
@Sumon_Late_CS_L2C       689       370       160        39         6         7         0         0         0         0         0         0
@Sumon_Late_CPLX_L2C         0         0         0         0         0         0         0         0         0         0         0         0
DRAM PAGES: 1048576
Allocated PAGES: 1998
