
*** ChampSim Multicore Out-of-Order Simulator ***

Warmup Instructions: 10000000
Simulation Instructions: 50000000
Number of CPUs: 1
LLC sets: 2048
LLC ways: 16
Off-chip DRAM Size: 4096 MB Channels: 1 Width: 64-bit Data Rate: 6400 MT/s
CPU 0 runs traces/clientserver/server_016.champsimtrace.xz
.xz
CPU 0 Bimodal branch predictor
BTB has LRU replacement policy
ITLB has LRU replacement policy
DTLB has LRU replacement policy
STLB has LRU replacement policy
L1I has LRU replacement policy
IP Table Entries: 256
L1D has LRU replacement policy
IP_Table L2 entries: 256
L2C has LRU replacement policy
Initialize DRRIP state for LLC
Heartbeat CPU 0 instructions: 10000000 cycles: 2875861 heartbeat IPC: 3.47722 cumulative IPC: 3.47722 (Simulation time: 0 hr 17 min 48 sec) 

Warmup complete CPU 0 instructions: 10000004 cycles: 2875862 (Simulation time: 0 hr 17 min 48 sec) 

Heartbeat CPU 0 instructions: 20000000 cycles: 26443778 heartbeat IPC: 0.424306 cumulative IPC: 0.424305 (Simulation time: 0 hr 34 min 51 sec) 
Heartbeat CPU 0 instructions: 30000001 cycles: 50115257 heartbeat IPC: 0.422449 cumulative IPC: 0.423375 (Simulation time: 0 hr 51 min 53 sec) 
Heartbeat CPU 0 instructions: 40000000 cycles: 66547274 heartbeat IPC: 0.608568 cumulative IPC: 0.471169 (Simulation time: 1 hr 5 min 7 sec) 
Heartbeat CPU 0 instructions: 50000002 cycles: 80861951 heartbeat IPC: 0.698584 cumulative IPC: 0.512912 (Simulation time: 1 hr 17 min 14 sec) 
Heartbeat CPU 0 instructions: 60000003 cycles: 96234424 heartbeat IPC: 0.650513 cumulative IPC: 0.535569 (Simulation time: 1 hr 29 min 49 sec) 
Finished CPU 0 instructions: 50000002 cycles: 93358563 cumulative IPC: 0.53557 (Simulation time: 1 hr 29 min 49 sec) 

ChampSim completed all CPUs

Region of Interest Statistics

CPU 0 cumulative IPC: 0.53557 instructions: 50000002 cycles: 93358563
ITLB TOTAL     ACCESS:   10320676  HIT:   10115060  MISS:     205616  HIT %:    98.0077  MISS %:    1.99227   MPKI: 4.11232
ITLB LOAD TRANSLATION ACCESS:   10320676  HIT:   10115060  MISS:     205616  HIT %:    98.0077  MISS %:    1.99227   MPKI: 4.11232
ITLB PREFETCH  REQUESTED:          0  ISSUED:          0  USEFUL:          0  USELESS:          0
ITLB USEFUL LOAD PREFETCHES:          0 PREFETCH ISSUED TO LOWER LEVEL:          0  ACCURACY: -nan
ITLB TIMELY PREFETCHES:          0 LATE PREFETCHES: 0 DROPPED PREFETCHES: 0
ITLB PREFETCHES SAME FILL-ORIGIN LEVEL: 0 DIFFERENT FILL-ORIGIN LEVEL: 0
ITLB AVERAGE MISS LATENCY: 9.10714 cycles
ITLB RQ	ACCESS:   11153933	FORWARD:          0	MERGED:     782194	TO_CACHE:   10371739

DTLB TOTAL     ACCESS:    8444699  HIT:    8228137  MISS:     216562  HIT %:    97.4355  MISS %:    2.56447   MPKI: 4.33124
DTLB LOAD TRANSLATION ACCESS:    8444699  HIT:    8228137  MISS:     216562  HIT %:    97.4355  MISS %:    2.56447   MPKI: 4.33124
DTLB PREFETCH  REQUESTED:          0  ISSUED:          0  USEFUL:          0  USELESS:          0
DTLB USEFUL LOAD PREFETCHES:          0 PREFETCH ISSUED TO LOWER LEVEL:          0  ACCURACY: -nan
DTLB TIMELY PREFETCHES:          0 LATE PREFETCHES: 0 DROPPED PREFETCHES: 0
DTLB PREFETCHES SAME FILL-ORIGIN LEVEL: 0 DIFFERENT FILL-ORIGIN LEVEL: 0
DTLB AVERAGE MISS LATENCY: 9.55089 cycles
DTLB RQ	ACCESS:   10114702	FORWARD:          0	MERGED:    1660451	TO_CACHE:    8454251

STLB TOTAL     ACCESS:    2418686  HIT:    2417299  MISS:       1387  HIT %:    99.9427  MISS %:  0.0573452   MPKI: 0.02774
STLB LOAD TRANSLATION ACCESS:     422178  HIT:     420791  MISS:       1387  HIT %:    99.6715  MISS %:   0.328534   MPKI: 0.02774
STLB TRANSLATION FROM L1D PREFETCHER ACCESS:    1996508  HIT:    1996508  MISS:          0  HIT %:        100  MISS %:          0   MPKI: 0
STLB PREFETCH  REQUESTED:          0  ISSUED:          0  USEFUL:          0  USELESS:          0
STLB USEFUL LOAD PREFETCHES:          0 PREFETCH ISSUED TO LOWER LEVEL:          0  ACCURACY: -nan
STLB TIMELY PREFETCHES:          0 LATE PREFETCHES: 0 DROPPED PREFETCHES: 0
STLB PREFETCHES SAME FILL-ORIGIN LEVEL: 0 DIFFERENT FILL-ORIGIN LEVEL: 0
STLB AVERAGE MISS LATENCY: 97.8825 cycles
STLB RQ	ACCESS:    4427331	FORWARD:          0	MERGED:    2008645	TO_CACHE:    2418686

STLB Hit, L1D data hit: 0
STLB Hit, L2C data hit: 0
STLB Hit, LLC data hit: 0
STLB Hit, LLC data miss: 0
STLB STLB hints to L2: 0
L1D TOTAL     ACCESS:   13866826  HIT:   13336699  MISS:     530127  HIT %:     96.177  MISS %:    3.82299   MPKI: 10.6025
L1D LOAD      ACCESS:    6521670  HIT:    6203332  MISS:     318338  HIT %:    95.1188  MISS %:    4.88123   MPKI: 6.36676
L1D RFO       ACCESS:    3372865  HIT:    3241877  MISS:     130988  HIT %:    96.1164  MISS %:    3.88358   MPKI: 2.61976
L1D PREFETCH  ACCESS:    3972291  HIT:    3891490  MISS:      80801  HIT %:    97.9659  MISS %:    2.03412   MPKI: 1.61602
L1D PREFETCH  REQUESTED:    8011876  ISSUED:    8010418  USEFUL:      30207  USELESS:      50573
L1D USEFUL LOAD PREFETCHES:      30207 PREFETCH ISSUED TO LOWER LEVEL:     105382  ACCURACY: 28.6643
L1D TIMELY PREFETCHES:      30207 LATE PREFETCHES: 24462 DROPPED PREFETCHES: 0
L1D PREFETCHES SAME FILL-ORIGIN LEVEL: 105382 DIFFERENT FILL-ORIGIN LEVEL: 0
L1D AVERAGE MISS LATENCY: 1.53971e+06 cycles
L1D RQ	ACCESS:    8252490	FORWARD:          0	MERGED:    1663815	TO_CACHE:    6539737
L1D WQ	ACCESS:    3595475	FORWARD:      49050	MERGED:      20510	TO_CACHE:    3574965
L1D PQ	ACCESS:    4005265	FORWARD:          0	MERGED:          0	TO_CACHE:    4005153

L1D UNIQUE REGIONS ACCESSED: 0
L1D REGIONS CONFLICTS: 0
L1D Cross Page Prefetch Requests: 0
L1D Same Page Prefetch Requests: 4128483
L1D ROI Sum of L1D PQ occupancy: 51819581
L1D PREFETCHES PUSHED FROM L2C: 0
L1I TOTAL     ACCESS:   10957622  HIT:    9799684  MISS:    1157938  HIT %:    89.4326  MISS %:    10.5674   MPKI: 23.1588
L1I LOAD      ACCESS:   10957622  HIT:    9799684  MISS:    1157938  HIT %:    89.4326  MISS %:    10.5674   MPKI: 23.1588
L1I PREFETCH  REQUESTED:          0  ISSUED:          0  USEFUL:          0  USELESS:          0
L1I USEFUL LOAD PREFETCHES:          0 PREFETCH ISSUED TO LOWER LEVEL:          0  ACCURACY: -nan
L1I TIMELY PREFETCHES:          0 LATE PREFETCHES: 0 DROPPED PREFETCHES: 0
L1I PREFETCHES SAME FILL-ORIGIN LEVEL: 0 DIFFERENT FILL-ORIGIN LEVEL: 0
L1I AVERAGE MISS LATENCY: 18.7048 cycles
L1I RQ	ACCESS:   13264827	FORWARD:          0	MERGED:    2110894	TO_CACHE:   11153933

BTB TOTAL     ACCESS:    7190451  HIT:    6378068  MISS:     812383  HIT %:    88.7019  MISS %:    11.2981   MPKI: 16.2477
BTB BRANCH_DIRECT_JUMP	ACCESS:     339310  HIT:     269835  MISS:      69475
BTB BRANCH_INDIRECT	ACCESS:     121946  HIT:     106677  MISS:      15269
BTB BRANCH_CONDITIONAL	ACCESS:    5612690  HIT:    5396943  MISS:     215747
BTB BRANCH_DIRECT_CALL	ACCESS:     483870  HIT:     323041  MISS:     160829
BTB BRANCH_INDIRECT_CALL	ACCESS:      74389  HIT:      41457  MISS:      32932
BTB BRANCH_RETURN	ACCESS:     558246  HIT:     240115  MISS:     318131
BTB BRANCH_OTHER ACCESS:          0  HIT:          0  MISS:          0

L2C TOTAL     ACCESS:    2158577  HIT:    1817901  MISS:     340676  HIT %:    84.2176  MISS %:    15.7824   MPKI: 6.81352
L2C LOAD      ACCESS:    1451814  HIT:    1229087  MISS:     222727  HIT %:    84.6587  MISS %:    15.3413   MPKI: 4.45454
L2C DATA LOAD MPKI: 1.01094
L2C INSTRUCTION LOAD MPKI: 3.4436
L2C RFO       ACCESS:     130864  HIT:      90897  MISS:      39967  HIT %:    69.4591  MISS %:    30.5409   MPKI: 0.79934
L2C PREFETCH  ACCESS:     348137  HIT:     274024  MISS:      74113  HIT %:    78.7115  MISS %:    21.2885   MPKI: 1.48226
L2C DATA PREFETCH MPKI: 1.48226
L2C INSTRUCTION PREFETCH MPKI: 0
L2C WRITEBACK ACCESS:     226209  HIT:     223446  MISS:       2763  HIT %:    98.7786  MISS %:    1.22144   MPKI: 0.05526
L2C LOAD TRANSLATION ACCESS:       1553  HIT:        447  MISS:       1106  HIT %:     28.783  MISS %:     71.217   MPKI: 0.02212
L2C PREFETCH  REQUESTED:     248928  ISSUED:     248928  USEFUL:      11785  USELESS:      62337
L2C USEFUL LOAD PREFETCHES:      11785 PREFETCH ISSUED TO LOWER LEVEL:      75332  ACCURACY: 15.6441
L2C TIMELY PREFETCHES:      11785 LATE PREFETCHES: 1219 DROPPED PREFETCHES: 0
L2C PREFETCHES SAME FILL-ORIGIN LEVEL: 37174 DIFFERENT FILL-ORIGIN LEVEL: 0
L2C AVERAGE MISS LATENCY: 39.5552 cycles
L2C RQ	ACCESS:    1584236	FORWARD:          0	MERGED:          0	TO_CACHE:    1584231
L2C WQ	ACCESS:     226209	FORWARD:          8	MERGED:          0	TO_CACHE:     226209
L2C PQ	ACCESS:     354310	FORWARD:          0	MERGED:       2575	TO_CACHE:     351732

L2C Instructions Evicting Data 79044
L2C Translations Evicting Data 735
L2C Data Evicting Data 86586
L2C Instructions Evicting Instructions 92744
L2C Translations Evicting Instructions 361
L2C Data Evicting Instructions 77345
L2C Instructions Evicting Translations 392
L2C Translations Evicting Translations 10
L2C Data Evicting Translations 696
L2C Dense regions hint from L2: 0
PSCL5 TOTAL     ACCESS:       1387  HIT:       1387  MISS:          0  HIT %:        100  MISS %:          0   MPKI: 0
PSCL5 LOAD TRANSLATION ACCESS:       1387  HIT:       1387  MISS:          0  HIT %:        100  MISS %:          0   MPKI: 0
PSCL5 PREFETCH  REQUESTED:          0  ISSUED:          0  USEFUL:          0  USELESS:          0
PSCL5 USEFUL LOAD PREFETCHES:          0 PREFETCH ISSUED TO LOWER LEVEL:          0  ACCURACY: -nan
PSCL5 TIMELY PREFETCHES:          0 LATE PREFETCHES: 0 DROPPED PREFETCHES: 0
PSCL5 PREFETCHES SAME FILL-ORIGIN LEVEL: 0 DIFFERENT FILL-ORIGIN LEVEL: 0

PSCL4 TOTAL     ACCESS:       1268  HIT:       1262  MISS:          6  HIT %:    99.5268  MISS %:   0.473186   MPKI: 0.00012
PSCL4 LOAD TRANSLATION ACCESS:       1268  HIT:       1262  MISS:          6  HIT %:    99.5268  MISS %:   0.473186   MPKI: 0.00012
PSCL4 PREFETCH  REQUESTED:          0  ISSUED:          0  USEFUL:          0  USELESS:          0
PSCL4 USEFUL LOAD PREFETCHES:          0 PREFETCH ISSUED TO LOWER LEVEL:          0  ACCURACY: -nan
PSCL4 TIMELY PREFETCHES:          0 LATE PREFETCHES: 0 DROPPED PREFETCHES: 0
PSCL4 PREFETCHES SAME FILL-ORIGIN LEVEL: 0 DIFFERENT FILL-ORIGIN LEVEL: 0

PSCL3 TOTAL     ACCESS:       1375  HIT:       1369  MISS:          6  HIT %:    99.5636  MISS %:   0.436364   MPKI: 0.00012
PSCL3 LOAD TRANSLATION ACCESS:       1375  HIT:       1369  MISS:          6  HIT %:    99.5636  MISS %:   0.436364   MPKI: 0.00012
PSCL3 PREFETCH  REQUESTED:          0  ISSUED:          0  USEFUL:          0  USELESS:          0
PSCL3 USEFUL LOAD PREFETCHES:          0 PREFETCH ISSUED TO LOWER LEVEL:          0  ACCURACY: -nan
PSCL3 TIMELY PREFETCHES:          0 LATE PREFETCHES: 0 DROPPED PREFETCHES: 0
PSCL3 PREFETCHES SAME FILL-ORIGIN LEVEL: 0 DIFFERENT FILL-ORIGIN LEVEL: 0

PSCL2 TOTAL     ACCESS:       1387  HIT:       1229  MISS:        158  HIT %:    88.6085  MISS %:    11.3915   MPKI: 0.00316
PSCL2 LOAD TRANSLATION ACCESS:       1387  HIT:       1229  MISS:        158  HIT %:    88.6085  MISS %:    11.3915   MPKI: 0.00316
PSCL2 PREFETCH  REQUESTED:          0  ISSUED:          0  USEFUL:          0  USELESS:          0
PSCL2 USEFUL LOAD PREFETCHES:          0 PREFETCH ISSUED TO LOWER LEVEL:          0  ACCURACY: -nan
PSCL2 TIMELY PREFETCHES:          0 LATE PREFETCHES: 0 DROPPED PREFETCHES: 0
PSCL2 PREFETCHES SAME FILL-ORIGIN LEVEL: 0 DIFFERENT FILL-ORIGIN LEVEL: 0

LLC TOTAL     ACCESS:     401164  HIT:     376717  MISS:      24447  HIT %:     93.906  MISS %:    6.09402   MPKI: 0.48894
LLC LOAD      ACCESS:     221602  HIT:     217842  MISS:       3760  HIT %:    98.3033  MISS %:    1.69674   MPKI: 0.0752
LLC RFO       ACCESS:      39873  HIT:      29576  MISS:      10297  HIT %:    74.1755  MISS %:    25.8245   MPKI: 0.20594
LLC PREFETCH  ACCESS:      75332  HIT:      65368  MISS:       9964  HIT %:    86.7732  MISS %:    13.2268   MPKI: 0.19928
LLC WRITEBACK ACCESS:      63251  HIT:      62965  MISS:        286  HIT %:    99.5478  MISS %:   0.452167   MPKI: 0.00572
LLC LOAD TRANSLATION ACCESS:       1106  HIT:        966  MISS:        140  HIT %:    87.3418  MISS %:    12.6582   MPKI: 0.0028
LLC PREFETCH  REQUESTED:          0  ISSUED:          0  USEFUL:        886  USELESS:       8401
LLC USEFUL LOAD PREFETCHES:        886 PREFETCH ISSUED TO LOWER LEVEL:       9964  ACCURACY: 8.89201
LLC TIMELY PREFETCHES:        886 LATE PREFETCHES: 0 DROPPED PREFETCHES: 0
LLC PREFETCHES SAME FILL-ORIGIN LEVEL: 0 DIFFERENT FILL-ORIGIN LEVEL: 0
LLC AVERAGE MISS LATENCY: 136.046 cycles
LLC RQ	ACCESS:     262581	FORWARD:          0	MERGED:          0	TO_CACHE:     262581
LLC WQ	ACCESS:      63251	FORWARD:          0	MERGED:          0	TO_CACHE:      63251
LLC PQ	ACCESS:      75332	FORWARD:          0	MERGED:          0	TO_CACHE:      75332

LLC Dense regions hint to LLC: 0

RAW hits: 341066
Loads Generated: 8593557
Loads sent to L1D: 8252490
Stores Generated: 3595476
Stores sent to L1D: 3595475
Major fault: 0 Minor fault: 2141
Allocated PAGES: 2141

stream: 
stream:times selected: 2656856
stream:pref_filled: 60241
stream:pref_useful: 12913
stream:pref_late: 20887
stream:misses: 7150
stream:misses_by_poll: 0

CS: 
CS:times selected: 2042364
CS:pref_filled: 39105
CS:pref_useful: 28635
CS:pref_late: 2577
CS:misses: 5618
CS:misses_by_poll: 3

CPLX: 
CPLX:times selected: 612805
CPLX:pref_filled: 18003
CPLX:pref_useful: 5933
CPLX:pref_late: 1768
CPLX:misses: 63492
CPLX:misses_by_poll: 1

NL_L1: 
NL:times selected: 4224
NL:pref_filled: 374
NL:pref_useful: 50
NL:pref_late: 14
NL:misses: 320
NL:misses_by_poll: 0

total selections: 5316249
total_filled: 80801
total_useful: 30207
total_late: 26174
total_polluted: 4
total_misses_after_warmup: 336408
conflicts: 1399164
Degree Incremented Times: 47
Degree Decremented Times: 65118

L1 IP Table Write Accesses: 4913590
L1 IP Table Read Accesses: 3514426
L1 RST Write Accesses: 2457906
L1 RST Read Accesses: 4915812
L1 CSPT Write Accesses: 2457906
L1 CSPT Read Accesses: 2899358
L1 RR Filter Tag Write Accesses: 4006723
L1 RR Filter Tag Read Accesses: 256166336
L1 IP Table Tag Write Accesses: 6539740
L1 IP Table Tag Read Accesses: 6539740
L1 RST Tag Write Accesses: 0
L1 RST Tag Read Accesses: 21260226
L1 RR Filter Write Accesses: 0
L1 RR Filter Read Accesses: 8362065
test: 174416
L2 IP Table Read Accesses: 542295
L2 IP Table Write Accesses: 713245
L2 IP Table Tag Read Accesses: 396853
L2 IP Table Tag Write Accesses: 396853

DRAM Statistics
 CHANNEL 0
 RQ ROW_BUFFER_HIT:      10684  ROW_BUFFER_MISS:      13474
 DBUS_CONGESTED:         14
 WQ ROW_BUFFER_HIT:        652  ROW_BUFFER_MISS:       4939  FULL:          0

 AVG_CONGESTED_CYCLE: 4
 All warmup complete: 2
Channel 0 Bank busy for read cycles: 0
Channel 0 Bank busy for write cycles: 0
Channel 0
Rank 0
0banks busy for read cycles: 91535565
0banks busy for write cycles: 2022
1banks busy for read cycles: 756696
1banks busy for write cycles: 267912
2banks busy for read cycles: 363158
2banks busy for write cycles: 74891
3banks busy for read cycles: 83822
3banks busy for write cycles: 36632
4banks busy for read cycles: 53310
4banks busy for write cycles: 25131
5banks busy for read cycles: 27012
5banks busy for write cycles: 17176
6banks busy for read cycles: 19872
6banks busy for write cycles: 14346
7banks busy for read cycles: 16094
7banks busy for write cycles: 11741
8banks busy for read cycles: 30486
8banks busy for write cycles: 22698

CPU 0 Branch Prediction Accuracy: 95.959% MPKI: 7.171 Average ROB Occupancy at Mispredict: 18.2909
Branch types
NOT_BRANCH: 41127058 82.2541%
BRANCH_DIRECT_JUMP: 339310 0.67862%
BRANCH_INDIRECT: 121946 0.243892%
BRANCH_CONDITIONAL: 7295137 14.5903%
BRANCH_DIRECT_CALL: 483870 0.96774%
BRANCH_INDIRECT_CALL: 74389 0.148778%
BRANCH_RETURN: 558246 1.11649%
BRANCH_OTHER: 0 0%

@sumon_overall_L1D     30207     24462     50573     80801   8010418   8011876
@Sumon_Early_by_class_L1D      6651     20477      2644         1
@Sumon_Late_by_class_L1D     19954      2320      1433         1

@Sumon_Early_by_cycle_L1D     22944      1997       967       461       158       414       339      1066       488       911       343       119
@Sumon_Late_by_cycle_L1D     23850       597        13         0         2         0         0         0         0         0         0         0
@Sumon_Early_stream_L1D      2510       593       566       338        84       236       271       672       300       664       304       113
@Sumon_Early_CS_L1D     18541      1317       307        81         3        18        11       172         8        16         1         2
@Sumon_Early_CPLX_L1D      1809        47        73        27        24       140        55       211        97       121        38         2
@Sumon_Late_stream_L1D     19722       228         4         0         0         0         0         0         0         0         0         0
@Sumon_Late_CS_L1D      1993       316         9         0         2         0         0         0         0         0         0         0
@Sumon_Late_CPLX_L1D      1417        16         0         0         0         0         0         0         0         0         0         0
@sumon_overall_L2C     11785      1219     62337     74113    248928    248928
@Sumon_Early_by_class_L2C      1485        97       317         0
@Sumon_Late_by_class_L2C         0         0         0         0

@Sumon_Early_by_cycle_L2C      2089      1004       587       644       301      1280       972       803       261       377       520      2947
@Sumon_Late_by_cycle_L2C       900       319         0         0         0         0         0         0         0         0         0         0
@Sumon_Early_stream_L2C         0         0         0         0         0         0         0         0         0         8       165      1312
@Sumon_Early_CS_L2C         0         0         0         0         0         0         0         0         0         0         0        97
@Sumon_Early_CPLX_L2C         0         0         0         0         0         0         0         0         0         0        31       286
@Sumon_Late_stream_L2C         0         0         0         0         0         0         0         0         0         0         0         0
@Sumon_Late_CS_L2C         0         0         0         0         0         0         0         0         0         0         0         0
@Sumon_Late_CPLX_L2C         0         0         0         0         0         0         0         0         0         0         0         0
DRAM PAGES: 1048576
Allocated PAGES: 2141
