
*** ChampSim Multicore Out-of-Order Simulator ***

Warmup Instructions: 10000000
Simulation Instructions: 50000000
Number of CPUs: 1
LLC sets: 2048
LLC ways: 16
Off-chip DRAM Size: 4096 MB Channels: 1 Width: 64-bit Data Rate: 6400 MT/s
CPU 0 runs traces/clientserver/server_034.champsimtrace.xz
.xz
CPU 0 Bimodal branch predictor
BTB has LRU replacement policy
ITLB has LRU replacement policy
DTLB has LRU replacement policy
STLB has LRU replacement policy
L1I has LRU replacement policy
IP Table Entries: 256
L1D has LRU replacement policy
IP_Table L2 entries: 256
L2C has LRU replacement policy
Initialize DRRIP state for LLC
Heartbeat CPU 0 instructions: 10000000 cycles: 2763066 heartbeat IPC: 3.61917 cumulative IPC: 3.61917 (Simulation time: 0 hr 17 min 20 sec) 

Warmup complete CPU 0 instructions: 10000004 cycles: 2763067 (Simulation time: 0 hr 17 min 20 sec) 

Heartbeat CPU 0 instructions: 20000002 cycles: 23112221 heartbeat IPC: 0.491421 cumulative IPC: 0.491421 (Simulation time: 0 hr 33 min 32 sec) 
Heartbeat CPU 0 instructions: 30000001 cycles: 43497816 heartbeat IPC: 0.490542 cumulative IPC: 0.490981 (Simulation time: 0 hr 49 min 34 sec) 
Heartbeat CPU 0 instructions: 40000000 cycles: 63786678 heartbeat IPC: 0.492881 cumulative IPC: 0.491613 (Simulation time: 1 hr 5 min 38 sec) 
Heartbeat CPU 0 instructions: 50000001 cycles: 83970343 heartbeat IPC: 0.49545 cumulative IPC: 0.492567 (Simulation time: 1 hr 21 min 18 sec) 
Heartbeat CPU 0 instructions: 60000002 cycles: 104068599 heartbeat IPC: 0.497556 cumulative IPC: 0.493556 (Simulation time: 1 hr 36 min 43 sec) 
Finished CPU 0 instructions: 50000003 cycles: 101305545 cumulative IPC: 0.493556 (Simulation time: 1 hr 36 min 43 sec) 

ChampSim completed all CPUs

Region of Interest Statistics

CPU 0 cumulative IPC: 0.493556 instructions: 50000003 cycles: 101305545
ITLB TOTAL     ACCESS:    8927575  HIT:    8422727  MISS:     504848  HIT %:    94.3451  MISS %:    5.65493   MPKI: 10.097
ITLB LOAD TRANSLATION ACCESS:    8927575  HIT:    8422727  MISS:     504848  HIT %:    94.3451  MISS %:    5.65493   MPKI: 10.097
ITLB PREFETCH  REQUESTED:          0  ISSUED:          0  USEFUL:          0  USELESS:          0
ITLB USEFUL LOAD PREFETCHES:          0 PREFETCH ISSUED TO LOWER LEVEL:          0  ACCURACY: -nan
ITLB TIMELY PREFETCHES:          0 LATE PREFETCHES: 0 DROPPED PREFETCHES: 0
ITLB PREFETCHES SAME FILL-ORIGIN LEVEL: 0 DIFFERENT FILL-ORIGIN LEVEL: 0
ITLB AVERAGE MISS LATENCY: 9.04961 cycles
ITLB RQ	ACCESS:   10606453	FORWARD:          0	MERGED:    1553962	TO_CACHE:    9052491

DTLB TOTAL     ACCESS:   10780008  HIT:   10362791  MISS:     417217  HIT %:    96.1297  MISS %:    3.87028   MPKI: 8.34434
DTLB LOAD TRANSLATION ACCESS:   10780008  HIT:   10362791  MISS:     417217  HIT %:    96.1297  MISS %:    3.87028   MPKI: 8.34434
DTLB PREFETCH  REQUESTED:          0  ISSUED:          0  USEFUL:          0  USELESS:          0
DTLB USEFUL LOAD PREFETCHES:          0 PREFETCH ISSUED TO LOWER LEVEL:          0  ACCURACY: -nan
DTLB TIMELY PREFETCHES:          0 LATE PREFETCHES: 0 DROPPED PREFETCHES: 0
DTLB PREFETCHES SAME FILL-ORIGIN LEVEL: 0 DIFFERENT FILL-ORIGIN LEVEL: 0
DTLB AVERAGE MISS LATENCY: 9.22382 cycles
DTLB RQ	ACCESS:   14319788	FORWARD:          0	MERGED:    3528594	TO_CACHE:   10791194

STLB TOTAL     ACCESS:    1166946  HIT:    1165773  MISS:       1173  HIT %:    99.8995  MISS %:   0.100519   MPKI: 0.02346
STLB LOAD TRANSLATION ACCESS:     922065  HIT:     920892  MISS:       1173  HIT %:    99.8728  MISS %:   0.127214   MPKI: 0.02346
STLB TRANSLATION FROM L1D PREFETCHER ACCESS:     244881  HIT:     244881  MISS:          0  HIT %:        100  MISS %:          0   MPKI: 0
STLB PREFETCH  REQUESTED:          0  ISSUED:          0  USEFUL:          0  USELESS:          0
STLB USEFUL LOAD PREFETCHES:          0 PREFETCH ISSUED TO LOWER LEVEL:          0  ACCURACY: -nan
STLB TIMELY PREFETCHES:          0 LATE PREFETCHES: 0 DROPPED PREFETCHES: 0
STLB PREFETCHES SAME FILL-ORIGIN LEVEL: 0 DIFFERENT FILL-ORIGIN LEVEL: 0
STLB AVERAGE MISS LATENCY: 88.555 cycles
STLB RQ	ACCESS:    1278839	FORWARD:          0	MERGED:     111893	TO_CACHE:    1166946

STLB Hit, L1D data hit: 0
STLB Hit, L2C data hit: 0
STLB Hit, LLC data hit: 0
STLB Hit, LLC data miss: 0
STLB STLB hints to L2: 0
L1D TOTAL     ACCESS:   14541686  HIT:   13659372  MISS:     882314  HIT %:    93.9325  MISS %:    6.06748   MPKI: 17.6463
L1D LOAD      ACCESS:    7868157  HIT:    7262745  MISS:     605412  HIT %:    92.3055  MISS %:    7.69446   MPKI: 12.1082
L1D RFO       ACCESS:    6324463  HIT:    6214568  MISS:     109895  HIT %:    98.2624  MISS %:    1.73762   MPKI: 2.1979
L1D PREFETCH  ACCESS:     349066  HIT:     182059  MISS:     167007  HIT %:     52.156  MISS %:     47.844   MPKI: 3.34014
L1D PREFETCH  REQUESTED:     714462  ISSUED:     714425  USEFUL:      21821  USELESS:     145251
L1D USEFUL LOAD PREFETCHES:      21821 PREFETCH ISSUED TO LOWER LEVEL:     168148  ACCURACY: 12.9773
L1D TIMELY PREFETCHES:      21821 LATE PREFETCHES: 1118 DROPPED PREFETCHES: 0
L1D PREFETCHES SAME FILL-ORIGIN LEVEL: 168148 DIFFERENT FILL-ORIGIN LEVEL: 0
L1D AVERAGE MISS LATENCY: 48383.5 cycles
L1D RQ	ACCESS:   11178533	FORWARD:          0	MERGED:    3137046	TO_CACHE:    7887536
L1D WQ	ACCESS:    6515360	FORWARD:     154828	MERGED:      83108	TO_CACHE:    6432252
L1D PQ	ACCESS:     357651	FORWARD:          0	MERGED:          0	TO_CACHE:     356774

L1D UNIQUE REGIONS ACCESSED: 0
L1D REGIONS CONFLICTS: 0
L1D Cross Page Prefetch Requests: 0
L1D Same Page Prefetch Requests: 416255
L1D ROI Sum of L1D PQ occupancy: 4614110
L1D PREFETCHES PUSHED FROM L2C: 0
L1I TOTAL     ACCESS:    9872179  HIT:    6565917  MISS:    3306262  HIT %:    66.5093  MISS %:    33.4907   MPKI: 66.1252
L1I LOAD      ACCESS:    9872179  HIT:    6565917  MISS:    3306262  HIT %:    66.5093  MISS %:    33.4907   MPKI: 66.1252
L1I PREFETCH  REQUESTED:          0  ISSUED:          0  USEFUL:          0  USELESS:          0
L1I USEFUL LOAD PREFETCHES:          0 PREFETCH ISSUED TO LOWER LEVEL:          0  ACCURACY: -nan
L1I TIMELY PREFETCHES:          0 LATE PREFETCHES: 0 DROPPED PREFETCHES: 0
L1I PREFETCHES SAME FILL-ORIGIN LEVEL: 0 DIFFERENT FILL-ORIGIN LEVEL: 0
L1I AVERAGE MISS LATENCY: 14.6813 cycles
L1I RQ	ACCESS:   14722199	FORWARD:          0	MERGED:    4115746	TO_CACHE:   10606453

BTB TOTAL     ACCESS:    6353113  HIT:    5342180  MISS:    1010933  HIT %:    84.0876  MISS %:    15.9124   MPKI: 20.2187
BTB BRANCH_DIRECT_JUMP	ACCESS:     767599  HIT:     688313  MISS:      79286
BTB BRANCH_INDIRECT	ACCESS:     108584  HIT:      73824  MISS:      34760
BTB BRANCH_CONDITIONAL	ACCESS:    2951217  HIT:    2732156  MISS:     219061
BTB BRANCH_DIRECT_CALL	ACCESS:    1050916  HIT:     928179  MISS:     122737
BTB BRANCH_INDIRECT_CALL	ACCESS:     211941  HIT:     142942  MISS:      68999
BTB BRANCH_RETURN	ACCESS:    1262856  HIT:     776766  MISS:     486090
BTB BRANCH_OTHER ACCESS:          0  HIT:          0  MISS:          0

L2C TOTAL     ACCESS:    5009727  HIT:    4820747  MISS:     188980  HIT %:    96.2277  MISS %:    3.77226   MPKI: 3.7796
L2C LOAD      ACCESS:    3910550  HIT:    3798147  MISS:     112403  HIT %:    97.1256  MISS %:    2.87435   MPKI: 2.24806
L2C DATA LOAD MPKI: 0.97644
L2C INSTRUCTION LOAD MPKI: 1.27162
L2C RFO       ACCESS:     109872  HIT:      99529  MISS:      10343  HIT %:    90.5863  MISS %:    9.41368   MPKI: 0.20686
L2C PREFETCH  ACCESS:     715484  HIT:     654404  MISS:      61080  HIT %:    91.4631  MISS %:    8.53688   MPKI: 1.2216
L2C DATA PREFETCH MPKI: 1.2216
L2C INSTRUCTION PREFETCH MPKI: 0
L2C WRITEBACK ACCESS:     272609  HIT:     267990  MISS:       4619  HIT %:    98.3056  MISS %:    1.69437   MPKI: 0.09238
L2C LOAD TRANSLATION ACCESS:       1212  HIT:        677  MISS:        535  HIT %:    55.8581  MISS %:    44.1419   MPKI: 0.0107
L2C PREFETCH  REQUESTED:     554118  ISSUED:     554118  USEFUL:      19485  USELESS:      41823
L2C USEFUL LOAD PREFETCHES:      19485 PREFETCH ISSUED TO LOWER LEVEL:      61686  ACCURACY: 31.5874
L2C TIMELY PREFETCHES:      19485 LATE PREFETCHES: 606 DROPPED PREFETCHES: 0
L2C PREFETCHES SAME FILL-ORIGIN LEVEL: 43392 DIFFERENT FILL-ORIGIN LEVEL: 0
L2C AVERAGE MISS LATENCY: 38.7147 cycles
L2C RQ	ACCESS:    4021640	FORWARD:          0	MERGED:          0	TO_CACHE:    4021635
L2C WQ	ACCESS:     272609	FORWARD:          6	MERGED:          0	TO_CACHE:     272609
L2C PQ	ACCESS:     722266	FORWARD:          0	MERGED:       3999	TO_CACHE:     718266

L2C Instructions Evicting Data 23792
L2C Translations Evicting Data 495
L2C Data Evicting Data 97309
L2C Instructions Evicting Instructions 39635
L2C Translations Evicting Instructions 29
L2C Data Evicting Instructions 21940
L2C Instructions Evicting Translations 75
L2C Translations Evicting Translations 4
L2C Data Evicting Translations 535
L2C Dense regions hint from L2: 0
PSCL5 TOTAL     ACCESS:       1173  HIT:       1173  MISS:          0  HIT %:        100  MISS %:          0   MPKI: 0
PSCL5 LOAD TRANSLATION ACCESS:       1173  HIT:       1173  MISS:          0  HIT %:        100  MISS %:          0   MPKI: 0
PSCL5 PREFETCH  REQUESTED:          0  ISSUED:          0  USEFUL:          0  USELESS:          0
PSCL5 USEFUL LOAD PREFETCHES:          0 PREFETCH ISSUED TO LOWER LEVEL:          0  ACCURACY: -nan
PSCL5 TIMELY PREFETCHES:          0 LATE PREFETCHES: 0 DROPPED PREFETCHES: 0
PSCL5 PREFETCHES SAME FILL-ORIGIN LEVEL: 0 DIFFERENT FILL-ORIGIN LEVEL: 0

PSCL4 TOTAL     ACCESS:        994  HIT:        991  MISS:          3  HIT %:    99.6982  MISS %:   0.301811   MPKI: 6e-05
PSCL4 LOAD TRANSLATION ACCESS:        994  HIT:        991  MISS:          3  HIT %:    99.6982  MISS %:   0.301811   MPKI: 6e-05
PSCL4 PREFETCH  REQUESTED:          0  ISSUED:          0  USEFUL:          0  USELESS:          0
PSCL4 USEFUL LOAD PREFETCHES:          0 PREFETCH ISSUED TO LOWER LEVEL:          0  ACCURACY: -nan
PSCL4 TIMELY PREFETCHES:          0 LATE PREFETCHES: 0 DROPPED PREFETCHES: 0
PSCL4 PREFETCHES SAME FILL-ORIGIN LEVEL: 0 DIFFERENT FILL-ORIGIN LEVEL: 0

PSCL3 TOTAL     ACCESS:        994  HIT:        991  MISS:          3  HIT %:    99.6982  MISS %:   0.301811   MPKI: 6e-05
PSCL3 LOAD TRANSLATION ACCESS:        994  HIT:        991  MISS:          3  HIT %:    99.6982  MISS %:   0.301811   MPKI: 6e-05
PSCL3 PREFETCH  REQUESTED:          0  ISSUED:          0  USEFUL:          0  USELESS:          0
PSCL3 USEFUL LOAD PREFETCHES:          0 PREFETCH ISSUED TO LOWER LEVEL:          0  ACCURACY: -nan
PSCL3 TIMELY PREFETCHES:          0 LATE PREFETCHES: 0 DROPPED PREFETCHES: 0
PSCL3 PREFETCHES SAME FILL-ORIGIN LEVEL: 0 DIFFERENT FILL-ORIGIN LEVEL: 0

PSCL2 TOTAL     ACCESS:       1173  HIT:       1133  MISS:         40  HIT %:    96.5899  MISS %:    3.41006   MPKI: 0.0008
PSCL2 LOAD TRANSLATION ACCESS:       1173  HIT:       1133  MISS:         40  HIT %:    96.5899  MISS %:    3.41006   MPKI: 0.0008
PSCL2 PREFETCH  REQUESTED:          0  ISSUED:          0  USEFUL:          0  USELESS:          0
PSCL2 USEFUL LOAD PREFETCHES:          0 PREFETCH ISSUED TO LOWER LEVEL:          0  ACCURACY: -nan
PSCL2 TIMELY PREFETCHES:          0 LATE PREFETCHES: 0 DROPPED PREFETCHES: 0
PSCL2 PREFETCHES SAME FILL-ORIGIN LEVEL: 0 DIFFERENT FILL-ORIGIN LEVEL: 0

LLC TOTAL     ACCESS:     234734  HIT:     220144  MISS:      14590  HIT %:    93.7845  MISS %:    6.21555   MPKI: 0.2918
LLC LOAD      ACCESS:     111837  HIT:     107402  MISS:       4435  HIT %:    96.0344  MISS %:    3.96559   MPKI: 0.0887
LLC RFO       ACCESS:      10302  HIT:       9492  MISS:        810  HIT %:    92.1374  MISS %:    7.86255   MPKI: 0.0162
LLC PREFETCH  ACCESS:      61684  HIT:      52587  MISS:       9097  HIT %:    85.2523  MISS %:    14.7477   MPKI: 0.18194
LLC WRITEBACK ACCESS:      50376  HIT:      50258  MISS:        118  HIT %:    99.7658  MISS %:   0.234239   MPKI: 0.00236
LLC LOAD TRANSLATION ACCESS:        535  HIT:        405  MISS:        130  HIT %:    75.7009  MISS %:    24.2991   MPKI: 0.0026
LLC PREFETCH  REQUESTED:          0  ISSUED:          0  USEFUL:       2806  USELESS:        455
LLC USEFUL LOAD PREFETCHES:       2806 PREFETCH ISSUED TO LOWER LEVEL:       9097  ACCURACY: 30.8453
LLC TIMELY PREFETCHES:       2806 LATE PREFETCHES: 0 DROPPED PREFETCHES: 0
LLC PREFETCHES SAME FILL-ORIGIN LEVEL: 0 DIFFERENT FILL-ORIGIN LEVEL: 0
LLC AVERAGE MISS LATENCY: 122.643 cycles
LLC RQ	ACCESS:     122675	FORWARD:          0	MERGED:          0	TO_CACHE:     122674
LLC WQ	ACCESS:      50376	FORWARD:          3	MERGED:          0	TO_CACHE:      50376
LLC PQ	ACCESS:      61686	FORWARD:          0	MERGED:          0	TO_CACHE:      61684

LLC Dense regions hint to LLC: 0

RAW hits: 865587
Loads Generated: 12044118
Loads sent to L1D: 11178533
Stores Generated: 6515355
Stores sent to L1D: 6515360
Major fault: 0 Minor fault: 1190
Allocated PAGES: 1190

stream: 
stream:times selected: 430765
stream:pref_filled: 112832
stream:pref_useful: 13120
stream:pref_late: 373
stream:misses: 7626
stream:misses_by_poll: 0

CS: 
CS:times selected: 6693
CS:pref_filled: 1484
CS:pref_useful: 1096
CS:pref_late: 313
CS:misses: 35
CS:misses_by_poll: 0

CPLX: 
CPLX:times selected: 426754
CPLX:pref_filled: 81117
CPLX:pref_useful: 9817
CPLX:pref_late: 502
CPLX:misses: 35651
CPLX:misses_by_poll: 3

NL_L1: 
NL:times selected: 811
NL:pref_filled: 220
NL:pref_useful: 15
NL:pref_late: 15
NL:misses: 301
NL:misses_by_poll: 0

total selections: 865023
total_filled: 167007
total_useful: 21821
total_late: 1574
total_polluted: 3
total_misses_after_warmup: 624791
conflicts: 3299921
Degree Incremented Times: 0
Degree Decremented Times: 120261

L1 IP Table Write Accesses: 4367804
L1 IP Table Read Accesses: 1067883
L1 RST Write Accesses: 374327
L1 RST Read Accesses: 748654
L1 CSPT Write Accesses: 374327
L1 CSPT Read Accesses: 745948
L1 RR Filter Tag Write Accesses: 357688
L1 RR Filter Tag Read Accesses: 16621795
L1 IP Table Tag Write Accesses: 7887536
L1 IP Table Tag Read Accesses: 7887536
L1 RST Tag Write Accesses: 0
L1 RST Tag Read Accesses: 4076802
L1 RR Filter Write Accesses: 0
L1 RR Filter Read Accesses: 588976
test: 196066
L2 IP Table Read Accesses: 977884
L2 IP Table Write Accesses: 1385986
L2 IP Table Tag Read Accesses: 767826
L2 IP Table Tag Write Accesses: 767826

DRAM Statistics
 CHANNEL 0
 RQ ROW_BUFFER_HIT:       7406  ROW_BUFFER_MISS:       7066
 DBUS_CONGESTED:          0
 WQ ROW_BUFFER_HIT:          3  ROW_BUFFER_MISS:         83  FULL:          0

 AVG_CONGESTED_CYCLE: -
 All warmup complete: 2
Channel 0 Bank busy for read cycles: 0
Channel 0 Bank busy for write cycles: 0
Channel 0
Rank 0
0banks busy for read cycles: 100450428
0banks busy for write cycles: 72
1banks busy for read cycles: 473115
1banks busy for write cycles: 10683
2banks busy for read cycles: 237818
2banks busy for write cycles: 1371
3banks busy for read cycles: 71205
3banks busy for write cycles: 142
4banks busy for read cycles: 41278
4banks busy for write cycles: 131
5banks busy for read cycles: 14459
5banks busy for write cycles: 0
6banks busy for read cycles: 3566
6banks busy for write cycles: 0
7banks busy for read cycles: 1176
7banks busy for write cycles: 0
8banks busy for read cycles: 102
8banks busy for write cycles: 0

CPU 0 Branch Prediction Accuracy: 93.1694% MPKI: 13.3539 Average ROB Occupancy at Mispredict: 17.7166
Branch types
NOT_BRANCH: 40224725 80.4494%
BRANCH_DIRECT_JUMP: 767599 1.5352%
BRANCH_INDIRECT: 108584 0.217168%
BRANCH_CONDITIONAL: 6373090 12.7462%
BRANCH_DIRECT_CALL: 1050916 2.10183%
BRANCH_INDIRECT_CALL: 211941 0.423882%
BRANCH_RETURN: 1262856 2.52571%
BRANCH_OTHER: 0 0%

@sumon_overall_L1D     21821      1118    145251    167007    714425    714462
@Sumon_Early_by_class_L1D     10903      1056      8691         2
@Sumon_Late_by_class_L1D        98       313       367         2

@Sumon_Early_by_cycle_L1D      6505      3485      2868      1228      2672       794       706       664       252      1817       603       227
@Sumon_Late_by_cycle_L1D      1095        23         0         0         0         0         0         0         0         0         0         0
@Sumon_Early_stream_L1D      3852      2791      1651       537       506       141       270       205        92       201       488       169
@Sumon_Early_CS_L1D       550       171        47       113        50        14         8        11        30        62         0         0
@Sumon_Early_CPLX_L1D      1745       359       970       238      2045       628       426       442       129      1548       108        53
@Sumon_Late_stream_L1D        98         0         0         0         0         0         0         0         0         0         0         0
@Sumon_Late_CS_L1D       311         2         0         0         0         0         0         0         0         0         0         0
@Sumon_Late_CPLX_L1D       349        18         0         0         0         0         0         0         0         0         0         0
@sumon_overall_L2C     19485       606     41823     61080    554118    554118
@Sumon_Early_by_class_L2C      1165       100       815         0
@Sumon_Late_by_class_L2C         0         0         0         0

@Sumon_Early_by_cycle_L2C      2520      1685      3576      2128       389      1760       383        68       880       935      2579      2582
@Sumon_Late_by_cycle_L2C       522        84         0         0         0         0         0         0         0         0         0         0
@Sumon_Early_stream_L2C         0         0         0         0         0         0         0         0         1        10       463       691
@Sumon_Early_CS_L2C         0         0         0         0         0         0         0         0         0        24         7        69
@Sumon_Early_CPLX_L2C         0         0         0         0         0         0         0         0         0        22        71       722
@Sumon_Late_stream_L2C         0         0         0         0         0         0         0         0         0         0         0         0
@Sumon_Late_CS_L2C         0         0         0         0         0         0         0         0         0         0         0         0
@Sumon_Late_CPLX_L2C         0         0         0         0         0         0         0         0         0         0         0         0
DRAM PAGES: 1048576
Allocated PAGES: 1190
