
*** ChampSim Multicore Out-of-Order Simulator ***

Warmup Instructions: 10000000
Simulation Instructions: 50000000
Number of CPUs: 1
LLC sets: 2048
LLC ways: 16
Off-chip DRAM Size: 4096 MB Channels: 1 Width: 64-bit Data Rate: 6400 MT/s
CPU 0 runs traces/clientserver/server_009.champsimtrace.xz
.xz
CPU 0 Bimodal branch predictor
BTB has LRU replacement policy
ITLB has LRU replacement policy
DTLB has LRU replacement policy
STLB has LRU replacement policy
L1I has LRU replacement policy
IP Table Entries: 256
L1D has LRU replacement policy
IP_Table L2 entries: 256
L2C has LRU replacement policy
Initialize DRRIP state for LLC
Heartbeat CPU 0 instructions: 10000001 cycles: 2771730 heartbeat IPC: 3.60786 cumulative IPC: 3.60786 (Simulation time: 0 hr 15 min 49 sec) 

Warmup complete CPU 0 instructions: 10000001 cycles: 2771730 (Simulation time: 0 hr 15 min 49 sec) 

Heartbeat CPU 0 instructions: 20000003 cycles: 23523164 heartbeat IPC: 0.481894 cumulative IPC: 0.481894 (Simulation time: 0 hr 32 min 13 sec) 
Heartbeat CPU 0 instructions: 30000002 cycles: 44346279 heartbeat IPC: 0.480235 cumulative IPC: 0.481064 (Simulation time: 0 hr 48 min 32 sec) 
Heartbeat CPU 0 instructions: 40000000 cycles: 65573058 heartbeat IPC: 0.471103 cumulative IPC: 0.477697 (Simulation time: 1 hr 5 min 18 sec) 
Heartbeat CPU 0 instructions: 50000002 cycles: 86015782 heartbeat IPC: 0.489172 cumulative IPC: 0.480515 (Simulation time: 1 hr 22 min 7 sec) 
Heartbeat CPU 0 instructions: 60000001 cycles: 112219404 heartbeat IPC: 0.381627 cumulative IPC: 0.456839 (Simulation time: 1 hr 41 min 9 sec) 
Finished CPU 0 instructions: 50000000 cycles: 109447674 cumulative IPC: 0.456839 (Simulation time: 1 hr 41 min 9 sec) 

ChampSim completed all CPUs

Region of Interest Statistics

CPU 0 cumulative IPC: 0.456839 instructions: 50000000 cycles: 109447674
ITLB TOTAL     ACCESS:    8298010  HIT:    8112857  MISS:     185153  HIT %:    97.7687  MISS %:    2.23129   MPKI: 3.70306
ITLB LOAD TRANSLATION ACCESS:    8298010  HIT:    8112857  MISS:     185153  HIT %:    97.7687  MISS %:    2.23129   MPKI: 3.70306
ITLB PREFETCH  REQUESTED:          0  ISSUED:          0  USEFUL:          0  USELESS:          0
ITLB USEFUL LOAD PREFETCHES:          0 PREFETCH ISSUED TO LOWER LEVEL:          0  ACCURACY: -nan
ITLB TIMELY PREFETCHES:          0 LATE PREFETCHES: 0 DROPPED PREFETCHES: 0
ITLB PREFETCHES SAME FILL-ORIGIN LEVEL: 0 DIFFERENT FILL-ORIGIN LEVEL: 0
ITLB AVERAGE MISS LATENCY: 17.3935 cycles
ITLB RQ	ACCESS:   10025076	FORWARD:          0	MERGED:    1679265	TO_CACHE:    8345811

DTLB TOTAL     ACCESS:   10477122  HIT:    9436308  MISS:    1040814  HIT %:    90.0658  MISS %:    9.93416   MPKI: 20.8163
DTLB LOAD TRANSLATION ACCESS:   10477122  HIT:    9436308  MISS:    1040814  HIT %:    90.0658  MISS %:    9.93416   MPKI: 20.8163
DTLB PREFETCH  REQUESTED:          0  ISSUED:          0  USEFUL:          0  USELESS:          0
DTLB USEFUL LOAD PREFETCHES:          0 PREFETCH ISSUED TO LOWER LEVEL:          0  ACCURACY: -nan
DTLB TIMELY PREFETCHES:          0 LATE PREFETCHES: 0 DROPPED PREFETCHES: 0
DTLB PREFETCHES SAME FILL-ORIGIN LEVEL: 0 DIFFERENT FILL-ORIGIN LEVEL: 0
DTLB AVERAGE MISS LATENCY: 12.5686 cycles
DTLB RQ	ACCESS:   13112430	FORWARD:          0	MERGED:    2600487	TO_CACHE:   10511943

STLB TOTAL     ACCESS:    1976909  HIT:    1865797  MISS:     111112  HIT %:    94.3795  MISS %:    5.62049   MPKI: 2.22224
STLB LOAD TRANSLATION ACCESS:    1225967  HIT:    1114855  MISS:     111112  HIT %:    90.9368  MISS %:    9.06321   MPKI: 2.22224
STLB TRANSLATION FROM L1D PREFETCHER ACCESS:     750942  HIT:     750942  MISS:          0  HIT %:        100  MISS %:          0   MPKI: 0
STLB PREFETCH  REQUESTED:          0  ISSUED:          0  USEFUL:          0  USELESS:          0
STLB USEFUL LOAD PREFETCHES:          0 PREFETCH ISSUED TO LOWER LEVEL:          0  ACCURACY: -nan
STLB TIMELY PREFETCHES:          0 LATE PREFETCHES: 0 DROPPED PREFETCHES: 0
STLB PREFETCHES SAME FILL-ORIGIN LEVEL: 0 DIFFERENT FILL-ORIGIN LEVEL: 0
STLB AVERAGE MISS LATENCY: 47.2624 cycles
STLB RQ	ACCESS:    2644893	FORWARD:          0	MERGED:     667984	TO_CACHE:    1976909

STLB Hit, L1D data hit: 0
STLB Hit, L2C data hit: 0
STLB Hit, LLC data hit: 0
STLB Hit, LLC data miss: 0
STLB STLB hints to L2: 0
L1D TOTAL     ACCESS:   14360324  HIT:   12364747  MISS:    1995577  HIT %:    86.1035  MISS %:    13.8965   MPKI: 39.9115
L1D LOAD      ACCESS:    8123772  HIT:    6979242  MISS:    1144530  HIT %:    85.9113  MISS %:    14.0887   MPKI: 22.8906
L1D RFO       ACCESS:    4852435  HIT:    4756288  MISS:      96147  HIT %:    98.0186  MISS %:    1.98142   MPKI: 1.92294
L1D PREFETCH  ACCESS:    1384117  HIT:     629217  MISS:     754900  HIT %:    45.4598  MISS %:    54.5402   MPKI: 15.098
L1D PREFETCH  REQUESTED:    2838133  ISSUED:    2838023  USEFUL:      81871  USELESS:     672775
L1D USEFUL LOAD PREFETCHES:      81871 PREFETCH ISSUED TO LOWER LEVEL:     777809  ACCURACY: 10.5258
L1D TIMELY PREFETCHES:      81871 LATE PREFETCHES: 22776 DROPPED PREFETCHES: 0
L1D PREFETCHES SAME FILL-ORIGIN LEVEL: 777809 DIFFERENT FILL-ORIGIN LEVEL: 0
L1D AVERAGE MISS LATENCY: 1.05039e+06 cycles
L1D RQ	ACCESS:   11460846	FORWARD:          0	MERGED:    3235345	TO_CACHE:    8150040
L1D WQ	ACCESS:    5045877	FORWARD:      75632	MERGED:      83487	TO_CACHE:    4962390
L1D PQ	ACCESS:    1419097	FORWARD:          0	MERGED:          0	TO_CACHE:    1418926

L1D UNIQUE REGIONS ACCESSED: 0
L1D REGIONS CONFLICTS: 0
L1D Cross Page Prefetch Requests: 0
L1D Same Page Prefetch Requests: 1467798
L1D ROI Sum of L1D PQ occupancy: 18590200
L1D PREFETCHES PUSHED FROM L2C: 0
L1I TOTAL     ACCESS:    9635276  HIT:    8421195  MISS:    1214081  HIT %:    87.3996  MISS %:    12.6004   MPKI: 24.2816
L1I LOAD      ACCESS:    9635276  HIT:    8421195  MISS:    1214081  HIT %:    87.3996  MISS %:    12.6004   MPKI: 24.2816
L1I PREFETCH  REQUESTED:          0  ISSUED:          0  USEFUL:          0  USELESS:          0
L1I USEFUL LOAD PREFETCHES:          0 PREFETCH ISSUED TO LOWER LEVEL:          0  ACCURACY: -nan
L1I TIMELY PREFETCHES:          0 LATE PREFETCHES: 0 DROPPED PREFETCHES: 0
L1I PREFETCHES SAME FILL-ORIGIN LEVEL: 0 DIFFERENT FILL-ORIGIN LEVEL: 0
L1I AVERAGE MISS LATENCY: 30.463 cycles
L1I RQ	ACCESS:   14396016	FORWARD:          0	MERGED:    4370940	TO_CACHE:   10025076

BTB TOTAL     ACCESS:    5173686  HIT:    4398171  MISS:     775515  HIT %:    85.0104  MISS %:    14.9896   MPKI: 15.5103
BTB BRANCH_DIRECT_JUMP	ACCESS:     463492  HIT:     404158  MISS:      59334
BTB BRANCH_INDIRECT	ACCESS:     174870  HIT:     123350  MISS:      51520
BTB BRANCH_CONDITIONAL	ACCESS:    2812699  HIT:    2571063  MISS:     241636
BTB BRANCH_DIRECT_CALL	ACCESS:     679008  HIT:     567416  MISS:     111592
BTB BRANCH_INDIRECT_CALL	ACCESS:     165073  HIT:     152920  MISS:      12153
BTB BRANCH_RETURN	ACCESS:     878544  HIT:     579264  MISS:     299280
BTB BRANCH_OTHER ACCESS:          0  HIT:          0  MISS:          0

L2C TOTAL     ACCESS:    4001936  HIT:    2758590  MISS:    1243346  HIT %:    68.9314  MISS %:    31.0686   MPKI: 24.8669
L2C LOAD      ACCESS:    2335818  HIT:    1478425  MISS:     857393  HIT %:    63.2937  MISS %:    36.7063   MPKI: 17.1479
L2C DATA LOAD MPKI: 4.73638
L2C INSTRUCTION LOAD MPKI: 12.4115
L2C RFO       ACCESS:      96013  HIT:      47820  MISS:      48193  HIT %:    49.8058  MISS %:    50.1942   MPKI: 0.96386
L2C PREFETCH  ACCESS:    1175897  HIT:     905973  MISS:     269924  HIT %:    77.0453  MISS %:    22.9547   MPKI: 5.39848
L2C DATA PREFETCH MPKI: 5.39848
L2C INSTRUCTION PREFETCH MPKI: 0
L2C WRITEBACK ACCESS:     253610  HIT:     250518  MISS:       3092  HIT %:    98.7808  MISS %:    1.21919   MPKI: 0.06184
L2C LOAD TRANSLATION ACCESS:     140598  HIT:      75854  MISS:      64744  HIT %:     53.951  MISS %:     46.049   MPKI: 1.29488
L2C PREFETCH  REQUESTED:     424374  ISSUED:     424374  USEFUL:      68682  USELESS:     200420
L2C USEFUL LOAD PREFETCHES:      68682 PREFETCH ISSUED TO LOWER LEVEL:     275935  ACCURACY: 24.8906
L2C TIMELY PREFETCHES:      68682 LATE PREFETCHES: 6011 DROPPED PREFETCHES: 0
L2C PREFETCHES SAME FILL-ORIGIN LEVEL: 207944 DIFFERENT FILL-ORIGIN LEVEL: 0
L2C AVERAGE MISS LATENCY: 44.08 cycles
L2C RQ	ACCESS:    2572447	FORWARD:          0	MERGED:          0	TO_CACHE:    2572429
L2C WQ	ACCESS:     253610	FORWARD:         18	MERGED:          0	TO_CACHE:     253610
L2C PQ	ACCESS:    1202183	FORWARD:          0	MERGED:       4699	TO_CACHE:    1197484

L2C Instructions Evicting Data 278990
L2C Translations Evicting Data 29716
L2C Data Evicting Data 247141
L2C Instructions Evicting Instructions 308801
L2C Translations Evicting Instructions 32119
L2C Data Evicting Instructions 278922
L2C Instructions Evicting Translations 32783
L2C Translations Evicting Translations 2909
L2C Data Evicting Translations 28873
L2C Dense regions hint from L2: 0
PSCL5 TOTAL     ACCESS:     111112  HIT:     111112  MISS:          0  HIT %:        100  MISS %:          0   MPKI: 0
PSCL5 LOAD TRANSLATION ACCESS:     111112  HIT:     111112  MISS:          0  HIT %:        100  MISS %:          0   MPKI: 0
PSCL5 PREFETCH  REQUESTED:          0  ISSUED:          0  USEFUL:          0  USELESS:          0
PSCL5 USEFUL LOAD PREFETCHES:          0 PREFETCH ISSUED TO LOWER LEVEL:          0  ACCURACY: -nan
PSCL5 TIMELY PREFETCHES:          0 LATE PREFETCHES: 0 DROPPED PREFETCHES: 0
PSCL5 PREFETCHES SAME FILL-ORIGIN LEVEL: 0 DIFFERENT FILL-ORIGIN LEVEL: 0

PSCL4 TOTAL     ACCESS:     103018  HIT:     102701  MISS:        317  HIT %:    99.6923  MISS %:   0.307713   MPKI: 0.00634
PSCL4 LOAD TRANSLATION ACCESS:     103018  HIT:     102701  MISS:        317  HIT %:    99.6923  MISS %:   0.307713   MPKI: 0.00634
PSCL4 PREFETCH  REQUESTED:          0  ISSUED:          0  USEFUL:          0  USELESS:          0
PSCL4 USEFUL LOAD PREFETCHES:          0 PREFETCH ISSUED TO LOWER LEVEL:          0  ACCURACY: -nan
PSCL4 TIMELY PREFETCHES:          0 LATE PREFETCHES: 0 DROPPED PREFETCHES: 0
PSCL4 PREFETCHES SAME FILL-ORIGIN LEVEL: 0 DIFFERENT FILL-ORIGIN LEVEL: 0

PSCL3 TOTAL     ACCESS:     110285  HIT:     109401  MISS:        884  HIT %:    99.1984  MISS %:    0.80156   MPKI: 0.01768
PSCL3 LOAD TRANSLATION ACCESS:     110285  HIT:     109401  MISS:        884  HIT %:    99.1984  MISS %:    0.80156   MPKI: 0.01768
PSCL3 PREFETCH  REQUESTED:          0  ISSUED:          0  USEFUL:          0  USELESS:          0
PSCL3 USEFUL LOAD PREFETCHES:          0 PREFETCH ISSUED TO LOWER LEVEL:          0  ACCURACY: -nan
PSCL3 TIMELY PREFETCHES:          0 LATE PREFETCHES: 0 DROPPED PREFETCHES: 0
PSCL3 PREFETCHES SAME FILL-ORIGIN LEVEL: 0 DIFFERENT FILL-ORIGIN LEVEL: 0

PSCL2 TOTAL     ACCESS:     111112  HIT:      82753  MISS:      28359  HIT %:    74.4771  MISS %:    25.5229   MPKI: 0.56718
PSCL2 LOAD TRANSLATION ACCESS:     111112  HIT:      82753  MISS:      28359  HIT %:    74.4771  MISS %:    25.5229   MPKI: 0.56718
PSCL2 PREFETCH  REQUESTED:          0  ISSUED:          0  USEFUL:          0  USELESS:          0
PSCL2 USEFUL LOAD PREFETCHES:          0 PREFETCH ISSUED TO LOWER LEVEL:          0  ACCURACY: -nan
PSCL2 TIMELY PREFETCHES:          0 LATE PREFETCHES: 0 DROPPED PREFETCHES: 0
PSCL2 PREFETCHES SAME FILL-ORIGIN LEVEL: 0 DIFFERENT FILL-ORIGIN LEVEL: 0

LLC TOTAL     ACCESS:    1394737  HIT:    1280897  MISS:     113840  HIT %:    91.8379  MISS %:    8.16211   MPKI: 2.2768
LLC LOAD      ACCESS:     851539  HIT:     823872  MISS:      27667  HIT %:    96.7509  MISS %:    3.24906   MPKI: 0.55334
LLC RFO       ACCESS:      48036  HIT:      37248  MISS:      10788  HIT %:    77.5418  MISS %:    22.4582   MPKI: 0.21576
LLC PREFETCH  ACCESS:     275935  HIT:     203273  MISS:      72662  HIT %:     73.667  MISS %:     26.333   MPKI: 1.45324
LLC WRITEBACK ACCESS:     154483  HIT:     153509  MISS:        974  HIT %:    99.3695  MISS %:    0.63049   MPKI: 0.01948
LLC LOAD TRANSLATION ACCESS:      64744  HIT:      62995  MISS:       1749  HIT %:    97.2986  MISS %:    2.70141   MPKI: 0.03498
LLC PREFETCH  REQUESTED:          0  ISSUED:          0  USEFUL:       3956  USELESS:      69377
LLC USEFUL LOAD PREFETCHES:       3956 PREFETCH ISSUED TO LOWER LEVEL:      72662  ACCURACY: 5.44439
LLC TIMELY PREFETCHES:       3956 LATE PREFETCHES: 0 DROPPED PREFETCHES: 0
LLC PREFETCHES SAME FILL-ORIGIN LEVEL: 0 DIFFERENT FILL-ORIGIN LEVEL: 0
LLC AVERAGE MISS LATENCY: 156.924 cycles
LLC RQ	ACCESS:     964319	FORWARD:          0	MERGED:          0	TO_CACHE:     964319
LLC WQ	ACCESS:     154483	FORWARD:          0	MERGED:          0	TO_CACHE:     154483
LLC PQ	ACCESS:     275935	FORWARD:          0	MERGED:          0	TO_CACHE:     275935

LLC Dense regions hint to LLC: 0

RAW hits: 770921
Loads Generated: 12231765
Loads sent to L1D: 11460846
Stores Generated: 5045874
Stores sent to L1D: 5045877
Major fault: 0 Minor fault: 5580
Allocated PAGES: 5580

stream: 
stream:times selected: 1223956
stream:pref_filled: 486528
stream:pref_useful: 28248
stream:pref_late: 3050
stream:misses: 300772
stream:misses_by_poll: 0

CS: 
CS:times selected: 237576
CS:pref_filled: 113411
CS:pref_useful: 27448
CS:pref_late: 2905
CS:misses: 25468
CS:misses_by_poll: 4

CPLX: 
CPLX:times selected: 1101257
CPLX:pref_filled: 169814
CPLX:pref_useful: 30769
CPLX:pref_late: 308
CPLX:misses: 312239
CPLX:misses_by_poll: 184

NL_L1: 
NL:times selected: 7696
NL:pref_filled: 1172
NL:pref_useful: 197
NL:pref_late: 29
NL:misses: 389
NL:misses_by_poll: 0

total selections: 2570485
total_filled: 754900
total_useful: 81871
total_late: 23494
total_polluted: 188
total_misses_after_warmup: 1170800
conflicts: 2383353
Degree Incremented Times: 3
Degree Decremented Times: 143134

L1 IP Table Write Accesses: 5231598
L1 IP Table Read Accesses: 2848245
L1 RST Write Accesses: 1156631
L1 RST Read Accesses: 2313262
L1 CSPT Write Accesses: 1156631
L1 CSPT Read Accesses: 2196288
L1 RR Filter Tag Write Accesses: 1419207
L1 RR Filter Tag Read Accesses: 59892583
L1 IP Table Tag Write Accesses: 8150042
L1 IP Table Tag Read Accesses: 8150042
L1 RST Tag Write Accesses: 0
L1 RST Tag Read Accesses: 10212414
L1 RR Filter Write Accesses: 0
L1 RR Filter Read Accesses: 1955217
test: 566727
L2 IP Table Read Accesses: 3356173
L2 IP Table Write Accesses: 3029288
L2 IP Table Tag Read Accesses: 1894307
L2 IP Table Tag Write Accesses: 1894307

DRAM Statistics
 CHANNEL 0
 RQ ROW_BUFFER_HIT:      18706  ROW_BUFFER_MISS:      94159
 DBUS_CONGESTED:         75
 WQ ROW_BUFFER_HIT:       6248  ROW_BUFFER_MISS:      48346  FULL:          0

 AVG_CONGESTED_CYCLE: 4
 All warmup complete: 2
Channel 0 Bank busy for read cycles: 0
Channel 0 Bank busy for write cycles: 0
Channel 0
Rank 0
0banks busy for read cycles: 91929120
0banks busy for write cycles: 31869
1banks busy for read cycles: 8782715
1banks busy for write cycles: 4318285
2banks busy for read cycles: 1950959
2banks busy for write cycles: 996537
3banks busy for read cycles: 433476
3banks busy for write cycles: 313803
4banks busy for read cycles: 143323
4banks busy for write cycles: 157183
5banks busy for read cycles: 42562
5banks busy for write cycles: 102087
6banks busy for read cycles: 19393
6banks busy for write cycles: 78546
7banks busy for read cycles: 9496
7banks busy for write cycles: 60675
8banks busy for read cycles: 13765
8banks busy for write cycles: 63881

CPU 0 Branch Prediction Accuracy: 93.4981% MPKI: 12.6299 Average ROB Occupancy at Mispredict: 24.5656
Branch types
NOT_BRANCH: 40287182 80.5744%
BRANCH_DIRECT_JUMP: 463492 0.926984%
BRANCH_INDIRECT: 174870 0.34974%
BRANCH_CONDITIONAL: 7351543 14.7031%
BRANCH_DIRECT_CALL: 679008 1.35802%
BRANCH_INDIRECT_CALL: 165073 0.330146%
BRANCH_RETURN: 878544 1.75709%
BRANCH_OTHER: 0 0%

@sumon_overall_L1D     81871     22776    672775    754900   2838023   2838133
@Sumon_Early_by_class_L1D     24588     25258     30076        24
@Sumon_Late_by_class_L1D      2825      2515       265        24

@Sumon_Early_by_cycle_L1D     51019      3145     13667      1936      1705      3373      1328      1365      2004      1553       624       152
@Sumon_Late_by_cycle_L1D     22123       631        17         5         0         0         0         0         0         0         0         0
@Sumon_Early_stream_L1D     11611      1537      1723      1309      1188      2163       977      1065      1421      1097       384       113
@Sumon_Early_CS_L1D     21276       678      2122        85       200       589       110        69        44        16        63         6
@Sumon_Early_CPLX_L1D     17737       627      9573       295       111       430       198       206       393       361       118        27
@Sumon_Late_stream_L1D      2508       315         2         0         0         0         0         0         0         0         0         0
@Sumon_Late_CS_L1D      2255       242        15         3         0         0         0         0         0         0         0         0
@Sumon_Late_CPLX_L1D       232        31         0         2         0         0         0         0         0         0         0         0
@sumon_overall_L2C     68682      6011    200420    269924    424374    424374
@Sumon_Early_by_class_L2C      1476       421       577         0
@Sumon_Late_by_class_L2C         0         0         0         0

@Sumon_Early_by_cycle_L2C     10896      7817      8471      5133      3798      9900      4809      3333      2458      2530      1701      7836
@Sumon_Late_by_cycle_L2C      4223      1786         2         0         0         0         0         0         0         0         0         0
@Sumon_Early_stream_L2C         0         0         0         0         0         0         0         0         0        13       103      1360
@Sumon_Early_CS_L2C         0         0         0         0         0         0         0         0         0         0        59       362
@Sumon_Early_CPLX_L2C         0         0         0         0         0         0         0         0         1        17        46       513
@Sumon_Late_stream_L2C         0         0         0         0         0         0         0         0         0         0         0         0
@Sumon_Late_CS_L2C         0         0         0         0         0         0         0         0         0         0         0         0
@Sumon_Late_CPLX_L2C         0         0         0         0         0         0         0         0         0         0         0         0
DRAM PAGES: 1048576
Allocated PAGES: 5580
