
*** ChampSim Multicore Out-of-Order Simulator ***

Warmup Instructions: 10000000
Simulation Instructions: 50000000
Number of CPUs: 1
LLC sets: 2048
LLC ways: 16
Off-chip DRAM Size: 4096 MB Channels: 1 Width: 64-bit Data Rate: 6400 MT/s
CPU 0 runs traces/clientserver/server_031.champsimtrace.xz
.xz
CPU 0 Bimodal branch predictor
BTB has LRU replacement policy
ITLB has LRU replacement policy
DTLB has LRU replacement policy
STLB has LRU replacement policy
L1I has LRU replacement policy
IP Table Entries: 256
L1D has LRU replacement policy
IP_Table L2 entries: 256
L2C has LRU replacement policy
Initialize DRRIP state for LLC
Heartbeat CPU 0 instructions: 10000000 cycles: 2889815 heartbeat IPC: 3.46043 cumulative IPC: 3.46043 (Simulation time: 0 hr 18 min 6 sec) 

Warmup complete CPU 0 instructions: 10000004 cycles: 2889816 (Simulation time: 0 hr 18 min 6 sec) 

Heartbeat CPU 0 instructions: 20000003 cycles: 28388585 heartbeat IPC: 0.392176 cumulative IPC: 0.392176 (Simulation time: 0 hr 35 min 42 sec) 
Heartbeat CPU 0 instructions: 30000001 cycles: 53802784 heartbeat IPC: 0.393481 cumulative IPC: 0.392827 (Simulation time: 0 hr 53 min 5 sec) 
Heartbeat CPU 0 instructions: 40000002 cycles: 79150573 heartbeat IPC: 0.394512 cumulative IPC: 0.393387 (Simulation time: 1 hr 10 min 28 sec) 
Heartbeat CPU 0 instructions: 50000001 cycles: 104447525 heartbeat IPC: 0.395305 cumulative IPC: 0.393865 (Simulation time: 1 hr 27 min 26 sec) 
Heartbeat CPU 0 instructions: 60000002 cycles: 129842414 heartbeat IPC: 0.39378 cumulative IPC: 0.393848 (Simulation time: 1 hr 41 min 32 sec) 
Finished CPU 0 instructions: 50000002 cycles: 126952599 cumulative IPC: 0.393848 (Simulation time: 1 hr 41 min 32 sec) 

ChampSim completed all CPUs

Region of Interest Statistics

CPU 0 cumulative IPC: 0.393848 instructions: 50000002 cycles: 126952599
ITLB TOTAL     ACCESS:    8597806  HIT:    8045766  MISS:     552040  HIT %:    93.5793  MISS %:    6.42071   MPKI: 11.0408
ITLB LOAD TRANSLATION ACCESS:    8597806  HIT:    8045766  MISS:     552040  HIT %:    93.5793  MISS %:    6.42071   MPKI: 11.0408
ITLB PREFETCH  REQUESTED:          0  ISSUED:          0  USEFUL:          0  USELESS:          0
ITLB USEFUL LOAD PREFETCHES:          0 PREFETCH ISSUED TO LOWER LEVEL:          0  ACCURACY: -nan
ITLB TIMELY PREFETCHES:          0 LATE PREFETCHES: 0 DROPPED PREFETCHES: 0
ITLB PREFETCHES SAME FILL-ORIGIN LEVEL: 0 DIFFERENT FILL-ORIGIN LEVEL: 0
ITLB AVERAGE MISS LATENCY: 9.15927 cycles
ITLB RQ	ACCESS:   10317946	FORWARD:          0	MERGED:    1581051	TO_CACHE:    8736895

DTLB TOTAL     ACCESS:   12567592  HIT:   12007069  MISS:     560523  HIT %:    95.5399  MISS %:    4.46007   MPKI: 11.2105
DTLB LOAD TRANSLATION ACCESS:   12567592  HIT:   12007069  MISS:     560523  HIT %:    95.5399  MISS %:    4.46007   MPKI: 11.2105
DTLB PREFETCH  REQUESTED:          0  ISSUED:          0  USEFUL:          0  USELESS:          0
DTLB USEFUL LOAD PREFETCHES:          0 PREFETCH ISSUED TO LOWER LEVEL:          0  ACCURACY: -nan
DTLB TIMELY PREFETCHES:          0 LATE PREFETCHES: 0 DROPPED PREFETCHES: 0
DTLB PREFETCHES SAME FILL-ORIGIN LEVEL: 0 DIFFERENT FILL-ORIGIN LEVEL: 0
DTLB AVERAGE MISS LATENCY: 11.3654 cycles
DTLB RQ	ACCESS:   15698793	FORWARD:          0	MERGED:    3112694	TO_CACHE:   12586099

STLB TOTAL     ACCESS:    1492132  HIT:    1478161  MISS:      13971  HIT %:    99.0637  MISS %:   0.936311   MPKI: 0.27942
STLB LOAD TRANSLATION ACCESS:    1112563  HIT:    1098592  MISS:      13971  HIT %:    98.7443  MISS %:    1.25575   MPKI: 0.27942
STLB TRANSLATION FROM L1D PREFETCHER ACCESS:     379569  HIT:     379569  MISS:          0  HIT %:        100  MISS %:          0   MPKI: 0
STLB PREFETCH  REQUESTED:          0  ISSUED:          0  USEFUL:          0  USELESS:          0
STLB USEFUL LOAD PREFETCHES:          0 PREFETCH ISSUED TO LOWER LEVEL:          0  ACCURACY: -nan
STLB TIMELY PREFETCHES:          0 LATE PREFETCHES: 0 DROPPED PREFETCHES: 0
STLB PREFETCHES SAME FILL-ORIGIN LEVEL: 0 DIFFERENT FILL-ORIGIN LEVEL: 0
STLB AVERAGE MISS LATENCY: 100.179 cycles
STLB RQ	ACCESS:    1595381	FORWARD:          0	MERGED:     103249	TO_CACHE:    1492132

STLB Hit, L1D data hit: 0
STLB Hit, L2C data hit: 0
STLB Hit, LLC data hit: 0
STLB Hit, LLC data miss: 0
STLB STLB hints to L2: 0
L1D TOTAL     ACCESS:   15609280  HIT:   14192789  MISS:    1416491  HIT %:    90.9253  MISS %:    9.07467   MPKI: 28.3298
L1D LOAD      ACCESS:    8711954  HIT:    7798979  MISS:     912975  HIT %:    89.5204  MISS %:    10.4796   MPKI: 18.2595
L1D RFO       ACCESS:    6484102  HIT:    6174395  MISS:     309707  HIT %:    95.2236  MISS %:    4.77641   MPKI: 6.19414
L1D PREFETCH  ACCESS:     413224  HIT:     219415  MISS:     193809  HIT %:    53.0983  MISS %:    46.9017   MPKI: 3.87618
L1D PREFETCH  REQUESTED:     965914  ISSUED:     965912  USEFUL:      60089  USELESS:     133723
L1D USEFUL LOAD PREFETCHES:      60089 PREFETCH ISSUED TO LOWER LEVEL:     243902  ACCURACY: 24.6365
L1D TIMELY PREFETCHES:      60089 LATE PREFETCHES: 49620 DROPPED PREFETCHES: 0
L1D PREFETCHES SAME FILL-ORIGIN LEVEL: 243902 DIFFERENT FILL-ORIGIN LEVEL: 0
L1D AVERAGE MISS LATENCY: 2.26831e+06 cycles
L1D RQ	ACCESS:   11883917	FORWARD:          0	MERGED:    3008978	TO_CACHE:    8754130
L1D WQ	ACCESS:    6988846	FORWARD:     121085	MERGED:      44183	TO_CACHE:    6944663
L1D PQ	ACCESS:     483094	FORWARD:          0	MERGED:          0	TO_CACHE:     482818

L1D UNIQUE REGIONS ACCESSED: 0
L1D REGIONS CONFLICTS: 0
L1D Cross Page Prefetch Requests: 0
L1D Same Page Prefetch Requests: 573775
L1D ROI Sum of L1D PQ occupancy: 6234582
L1D PREFETCHES PUSHED FROM L2C: 0
L1I TOTAL     ACCESS:    9783020  HIT:    6775744  MISS:    3007276  HIT %:    69.2602  MISS %:    30.7398   MPKI: 60.1455
L1I LOAD      ACCESS:    9783020  HIT:    6775744  MISS:    3007276  HIT %:    69.2602  MISS %:    30.7398   MPKI: 60.1455
L1I PREFETCH  REQUESTED:          0  ISSUED:          0  USEFUL:          0  USELESS:          0
L1I USEFUL LOAD PREFETCHES:          0 PREFETCH ISSUED TO LOWER LEVEL:          0  ACCURACY: -nan
L1I TIMELY PREFETCHES:          0 LATE PREFETCHES: 0 DROPPED PREFETCHES: 0
L1I PREFETCHES SAME FILL-ORIGIN LEVEL: 0 DIFFERENT FILL-ORIGIN LEVEL: 0
L1I AVERAGE MISS LATENCY: 17.7417 cycles
L1I RQ	ACCESS:   14056073	FORWARD:          0	MERGED:    3738127	TO_CACHE:   10317946

BTB TOTAL     ACCESS:    6102276  HIT:    4206282  MISS:    1895994  HIT %:    68.9297  MISS %:    31.0703   MPKI: 37.9199
BTB BRANCH_DIRECT_JUMP	ACCESS:     546758  HIT:     394739  MISS:     152019
BTB BRANCH_INDIRECT	ACCESS:     172660  HIT:     135870  MISS:      36790
BTB BRANCH_CONDITIONAL	ACCESS:    2968197  HIT:    2446713  MISS:     521484
BTB BRANCH_DIRECT_CALL	ACCESS:    1018538  HIT:     647411  MISS:     371127
BTB BRANCH_INDIRECT_CALL	ACCESS:     188789  HIT:     117745  MISS:      71044
BTB BRANCH_RETURN	ACCESS:    1207334  HIT:     463804  MISS:     743530
BTB BRANCH_OTHER ACCESS:          0  HIT:          0  MISS:          0

L2C TOTAL     ACCESS:    5746990  HIT:    5043264  MISS:     703726  HIT %:    87.7549  MISS %:    12.2451   MPKI: 14.0745
L2C LOAD      ACCESS:    3870628  HIT:    3381176  MISS:     489452  HIT %:    87.3547  MISS %:    12.6453   MPKI: 9.78904
L2C DATA LOAD MPKI: 2.57638
L2C INSTRUCTION LOAD MPKI: 7.21266
L2C RFO       ACCESS:     309234  HIT:     256186  MISS:      53048  HIT %:    82.8454  MISS %:    17.1546   MPKI: 1.06096
L2C PREFETCH  ACCESS:     951275  HIT:     808196  MISS:     143079  HIT %:    84.9592  MISS %:    15.0408   MPKI: 2.86158
L2C DATA PREFETCH MPKI: 2.86158
L2C INSTRUCTION PREFETCH MPKI: 0
L2C WRITEBACK ACCESS:     594676  HIT:     588853  MISS:       5823  HIT %:    99.0208  MISS %:   0.979189   MPKI: 0.11646
L2C LOAD TRANSLATION ACCESS:      21177  HIT:       8853  MISS:      12324  HIT %:    41.8048  MISS %:    58.1952   MPKI: 0.24648
L2C PREFETCH  REQUESTED:     724843  ISSUED:     724843  USEFUL:      19349  USELESS:     124077
L2C USEFUL LOAD PREFETCHES:      19349 PREFETCH ISSUED TO LOWER LEVEL:     147161  ACCURACY: 13.1482
L2C TIMELY PREFETCHES:      19349 LATE PREFETCHES: 4082 DROPPED PREFETCHES: 0
L2C PREFETCHES SAME FILL-ORIGIN LEVEL: 80766 DIFFERENT FILL-ORIGIN LEVEL: 0
L2C AVERAGE MISS LATENCY: 42.52 cycles
L2C RQ	ACCESS:    4201041	FORWARD:          0	MERGED:          0	TO_CACHE:    4201039
L2C WQ	ACCESS:     594676	FORWARD:          3	MERGED:          0	TO_CACHE:     594676
L2C PQ	ACCESS:     968745	FORWARD:          0	MERGED:       6518	TO_CACHE:     962226

L2C Instructions Evicting Data 138512
L2C Translations Evicting Data 8312
L2C Data Evicting Data 181849
L2C Instructions Evicting Instructions 218738
L2C Translations Evicting Instructions 3191
L2C Data Evicting Instructions 134972
L2C Instructions Evicting Translations 3383
L2C Translations Evicting Translations 821
L2C Data Evicting Translations 8125
L2C Dense regions hint from L2: 0
PSCL5 TOTAL     ACCESS:      13971  HIT:      13971  MISS:          0  HIT %:        100  MISS %:          0   MPKI: 0
PSCL5 LOAD TRANSLATION ACCESS:      13971  HIT:      13971  MISS:          0  HIT %:        100  MISS %:          0   MPKI: 0
PSCL5 PREFETCH  REQUESTED:          0  ISSUED:          0  USEFUL:          0  USELESS:          0
PSCL5 USEFUL LOAD PREFETCHES:          0 PREFETCH ISSUED TO LOWER LEVEL:          0  ACCURACY: -nan
PSCL5 TIMELY PREFETCHES:          0 LATE PREFETCHES: 0 DROPPED PREFETCHES: 0
PSCL5 PREFETCHES SAME FILL-ORIGIN LEVEL: 0 DIFFERENT FILL-ORIGIN LEVEL: 0

PSCL4 TOTAL     ACCESS:      13315  HIT:      13146  MISS:        169  HIT %:    98.7308  MISS %:    1.26925   MPKI: 0.00338
PSCL4 LOAD TRANSLATION ACCESS:      13315  HIT:      13146  MISS:        169  HIT %:    98.7308  MISS %:    1.26925   MPKI: 0.00338
PSCL4 PREFETCH  REQUESTED:          0  ISSUED:          0  USEFUL:          0  USELESS:          0
PSCL4 USEFUL LOAD PREFETCHES:          0 PREFETCH ISSUED TO LOWER LEVEL:          0  ACCURACY: -nan
PSCL4 TIMELY PREFETCHES:          0 LATE PREFETCHES: 0 DROPPED PREFETCHES: 0
PSCL4 PREFETCHES SAME FILL-ORIGIN LEVEL: 0 DIFFERENT FILL-ORIGIN LEVEL: 0

PSCL3 TOTAL     ACCESS:      13938  HIT:      13769  MISS:        169  HIT %:    98.7875  MISS %:    1.21251   MPKI: 0.00338
PSCL3 LOAD TRANSLATION ACCESS:      13938  HIT:      13769  MISS:        169  HIT %:    98.7875  MISS %:    1.21251   MPKI: 0.00338
PSCL3 PREFETCH  REQUESTED:          0  ISSUED:          0  USEFUL:          0  USELESS:          0
PSCL3 USEFUL LOAD PREFETCHES:          0 PREFETCH ISSUED TO LOWER LEVEL:          0  ACCURACY: -nan
PSCL3 TIMELY PREFETCHES:          0 LATE PREFETCHES: 0 DROPPED PREFETCHES: 0
PSCL3 PREFETCHES SAME FILL-ORIGIN LEVEL: 0 DIFFERENT FILL-ORIGIN LEVEL: 0

PSCL2 TOTAL     ACCESS:      13971  HIT:       7097  MISS:       6874  HIT %:    50.7981  MISS %:    49.2019   MPKI: 0.13748
PSCL2 LOAD TRANSLATION ACCESS:      13971  HIT:       7097  MISS:       6874  HIT %:    50.7981  MISS %:    49.2019   MPKI: 0.13748
PSCL2 PREFETCH  REQUESTED:          0  ISSUED:          0  USEFUL:          0  USELESS:          0
PSCL2 USEFUL LOAD PREFETCHES:          0 PREFETCH ISSUED TO LOWER LEVEL:          0  ACCURACY: -nan
PSCL2 TIMELY PREFETCHES:          0 LATE PREFETCHES: 0 DROPPED PREFETCHES: 0
PSCL2 PREFETCHES SAME FILL-ORIGIN LEVEL: 0 DIFFERENT FILL-ORIGIN LEVEL: 0

LLC TOTAL     ACCESS:     788393  HIT:     727775  MISS:      60618  HIT %:    92.3112  MISS %:     7.6888   MPKI: 1.21236
LLC LOAD      ACCESS:     485450  HIT:     467237  MISS:      18213  HIT %:    96.2482  MISS %:    3.75178   MPKI: 0.36426
LLC RFO       ACCESS:      52968  HIT:      50152  MISS:       2816  HIT %:    94.6836  MISS %:    5.31642   MPKI: 0.05632
LLC PREFETCH  ACCESS:     147161  HIT:     109732  MISS:      37429  HIT %:     74.566  MISS %:     25.434   MPKI: 0.74858
LLC WRITEBACK ACCESS:      90490  HIT:      90164  MISS:        326  HIT %:    99.6397  MISS %:   0.360261   MPKI: 0.00652
LLC LOAD TRANSLATION ACCESS:      12324  HIT:      10490  MISS:       1834  HIT %:    85.1185  MISS %:    14.8815   MPKI: 0.03668
LLC PREFETCH  REQUESTED:          0  ISSUED:          0  USEFUL:       1402  USELESS:      33224
LLC USEFUL LOAD PREFETCHES:       1402 PREFETCH ISSUED TO LOWER LEVEL:      37429  ACCURACY: 3.74576
LLC TIMELY PREFETCHES:       1402 LATE PREFETCHES: 0 DROPPED PREFETCHES: 0
LLC PREFETCHES SAME FILL-ORIGIN LEVEL: 0 DIFFERENT FILL-ORIGIN LEVEL: 0
LLC AVERAGE MISS LATENCY: 147.908 cycles
LLC RQ	ACCESS:     550742	FORWARD:          0	MERGED:          0	TO_CACHE:     550742
LLC WQ	ACCESS:      90490	FORWARD:          0	MERGED:          0	TO_CACHE:      90490
LLC PQ	ACCESS:     147161	FORWARD:          0	MERGED:          0	TO_CACHE:     147161

LLC Dense regions hint to LLC: 0

RAW hits: 573067
Loads Generated: 12456984
Loads sent to L1D: 11883917
Stores Generated: 6988845
Stores sent to L1D: 6988846
Major fault: 0 Minor fault: 5588
Allocated PAGES: 5588

stream: 
stream:times selected: 848350
stream:pref_filled: 132004
stream:pref_useful: 25179
stream:pref_late: 43238
stream:misses: 11766
stream:misses_by_poll: 0

CS: 
CS:times selected: 102554
CS:pref_filled: 61578
CS:pref_useful: 42678
CS:pref_late: 2695
CS:misses: 6261
CS:misses_by_poll: 6

CPLX: 
CPLX:times selected: 743159
CPLX:pref_filled: 37127
CPLX:pref_useful: 5984
CPLX:pref_late: 3071
CPLX:misses: 134584
CPLX:misses_by_poll: 17

NL_L1: 
NL:times selected: 2614
NL:pref_filled: 871
NL:pref_useful: 66
NL:pref_late: 27
NL:misses: 241
NL:misses_by_poll: 0

total selections: 1696677
total_filled: 193809
total_useful: 60089
total_late: 51823
total_polluted: 23
total_misses_after_warmup: 955150
conflicts: 3383863
Degree Incremented Times: 0
Degree Decremented Times: 159600

L1 IP Table Write Accesses: 5090171
L1 IP Table Read Accesses: 1706308
L1 RST Write Accesses: 716405
L1 RST Read Accesses: 1432810
L1 CSPT Write Accesses: 716405
L1 CSPT Read Accesses: 1342669
L1 RR Filter Tag Write Accesses: 483096
L1 RR Filter Tag Read Accesses: 34392565
L1 IP Table Tag Write Accesses: 8754129
L1 IP Table Tag Read Accesses: 8754129
L1 RST Tag Write Accesses: 0
L1 RST Tag Read Accesses: 7007181
L1 RR Filter Write Accesses: 0
L1 RR Filter Read Accesses: 1233701
test: 175316
L2 IP Table Read Accesses: 1469942
L2 IP Table Write Accesses: 1976324
L2 IP Table Tag Read Accesses: 1101820
L2 IP Table Tag Write Accesses: 1101820

DRAM Statistics
 CHANNEL 0
 RQ ROW_BUFFER_HIT:      16637  ROW_BUFFER_MISS:      43655
 DBUS_CONGESTED:          9
 WQ ROW_BUFFER_HIT:        373  ROW_BUFFER_MISS:       1400  FULL:          0

 AVG_CONGESTED_CYCLE: 3
 All warmup complete: 2
Channel 0 Bank busy for read cycles: 0
Channel 0 Bank busy for write cycles: 0
Channel 0
Rank 0
0banks busy for read cycles: 122565313
0banks busy for write cycles: 1359
1banks busy for read cycles: 2026293
1banks busy for write cycles: 260962
2banks busy for read cycles: 1252955
2banks busy for write cycles: 39757
3banks busy for read cycles: 487157
3banks busy for write cycles: 11715
4banks busy for read cycles: 190558
4banks busy for write cycles: 3190
5banks busy for read cycles: 69755
5banks busy for write cycles: 756
6banks busy for read cycles: 19181
6banks busy for write cycles: 435
7banks busy for read cycles: 7640
7banks busy for write cycles: 643
8banks busy for read cycles: 13368
8banks busy for write cycles: 1563

CPU 0 Branch Prediction Accuracy: 91.8928% MPKI: 15.1591 Average ROB Occupancy at Mispredict: 19.2569
Branch types
NOT_BRANCH: 40650646 81.3013%
BRANCH_DIRECT_JUMP: 546758 1.09352%
BRANCH_INDIRECT: 172660 0.34532%
BRANCH_CONDITIONAL: 6215044 12.4301%
BRANCH_DIRECT_CALL: 1018538 2.03708%
BRANCH_INDIRECT_CALL: 188789 0.377578%
BRANCH_RETURN: 1207334 2.41467%
BRANCH_OTHER: 0 0%

@sumon_overall_L1D     60089     49620    133723    193809    965912    965914
@Sumon_Early_by_class_L1D     19067     35912      4003        19
@Sumon_Late_by_class_L1D     42088      2311      2613        19

@Sumon_Early_by_cycle_L1D     43288      4759      2618      1560       189      1424       809       729      1875      2153       682         3
@Sumon_Late_by_cycle_L1D     48009      1587        24         0         0         0         0         0         0         0         0         0
@Sumon_Early_stream_L1D      7537      2479      1805      1058       171      1302       660       661      1283      1688       420         3
@Sumon_Early_CS_L1D     33297      1805       388       364         2         0         0         0         0        56         0         0
@Sumon_Early_CPLX_L1D      2293       178       411       126        16       120       145        63        88       301       262         0
@Sumon_Late_stream_L1D     40915      1150        23         0         0         0         0         0         0         0         0         0
@Sumon_Late_CS_L1D      2041       270         0         0         0         0         0         0         0         0         0         0
@Sumon_Late_CPLX_L1D      2528        84         1         0         0         0         0         0         0         0         0         0
@sumon_overall_L2C     19349      4082    124077    143079    724843    724843
@Sumon_Early_by_class_L2C       986        58       214         0
@Sumon_Late_by_class_L2C         0         0         0         0

@Sumon_Early_by_cycle_L2C      5402      2880       857       261      1330      2679       840      1109      1033       598       451      1909
@Sumon_Late_by_cycle_L2C      3341       736         5         0         0         0         0         0         0         0         0         0
@Sumon_Early_stream_L2C         0         0         0         0         0         0         0         0         0        17        56       913
@Sumon_Early_CS_L2C         0         0         0         0         0         0         0         0         0         0         1        57
@Sumon_Early_CPLX_L2C         0         0         0         0         0         0         0         0         0         0        21       193
@Sumon_Late_stream_L2C         0         0         0         0         0         0         0         0         0         0         0         0
@Sumon_Late_CS_L2C         0         0         0         0         0         0         0         0         0         0         0         0
@Sumon_Late_CPLX_L2C         0         0         0         0         0         0         0         0         0         0         0         0
DRAM PAGES: 1048576
Allocated PAGES: 5588
