
*** ChampSim Multicore Out-of-Order Simulator ***

Warmup Instructions: 10000000
Simulation Instructions: 50000000
Number of CPUs: 1
LLC sets: 2048
LLC ways: 16
Off-chip DRAM Size: 4096 MB Channels: 1 Width: 64-bit Data Rate: 6400 MT/s
CPU 0 runs traces/clientserver/server_021.champsimtrace.xz
.xz
CPU 0 Bimodal branch predictor
BTB has LRU replacement policy
ITLB has LRU replacement policy
DTLB has LRU replacement policy
STLB has LRU replacement policy
L1I has LRU replacement policy
IP Table Entries: 256
L1D has LRU replacement policy
IP_Table L2 entries: 256
L2C has LRU replacement policy
Initialize DRRIP state for LLC
Heartbeat CPU 0 instructions: 10000000 cycles: 3158066 heartbeat IPC: 3.16649 cumulative IPC: 3.16649 (Simulation time: 0 hr 19 min 12 sec) 

Warmup complete CPU 0 instructions: 10000004 cycles: 3158067 (Simulation time: 0 hr 19 min 12 sec) 

Heartbeat CPU 0 instructions: 20000000 cycles: 25571851 heartbeat IPC: 0.446154 cumulative IPC: 0.446154 (Simulation time: 0 hr 43 min 49 sec) 
Heartbeat CPU 0 instructions: 30000003 cycles: 48009586 heartbeat IPC: 0.445678 cumulative IPC: 0.445916 (Simulation time: 1 hr 8 min 16 sec) 
Heartbeat CPU 0 instructions: 40000000 cycles: 70236998 heartbeat IPC: 0.449895 cumulative IPC: 0.447234 (Simulation time: 1 hr 33 min 4 sec) 
Heartbeat CPU 0 instructions: 50000002 cycles: 92586285 heartbeat IPC: 0.447442 cumulative IPC: 0.447286 (Simulation time: 1 hr 44 min 17 sec) 
Heartbeat CPU 0 instructions: 60000001 cycles: 114845606 heartbeat IPC: 0.44925 cumulative IPC: 0.447677 (Simulation time: 1 hr 48 min 16 sec) 
Finished CPU 0 instructions: 50000001 cycles: 111687540 cumulative IPC: 0.447678 (Simulation time: 1 hr 48 min 16 sec) 

ChampSim completed all CPUs

Region of Interest Statistics

CPU 0 cumulative IPC: 0.447678 instructions: 50000001 cycles: 111687540
ITLB TOTAL     ACCESS:    8949291  HIT:    8567002  MISS:     382289  HIT %:    95.7283  MISS %:    4.27172   MPKI: 7.64578
ITLB LOAD TRANSLATION ACCESS:    8949291  HIT:    8567002  MISS:     382289  HIT %:    95.7283  MISS %:    4.27172   MPKI: 7.64578
ITLB PREFETCH  REQUESTED:          0  ISSUED:          0  USEFUL:          0  USELESS:          0
ITLB USEFUL LOAD PREFETCHES:          0 PREFETCH ISSUED TO LOWER LEVEL:          0  ACCURACY: -nan
ITLB TIMELY PREFETCHES:          0 LATE PREFETCHES: 0 DROPPED PREFETCHES: 0
ITLB PREFETCHES SAME FILL-ORIGIN LEVEL: 0 DIFFERENT FILL-ORIGIN LEVEL: 0
ITLB AVERAGE MISS LATENCY: 9.26408 cycles
ITLB RQ	ACCESS:   10547059	FORWARD:          0	MERGED:    1475074	TO_CACHE:    9071985

DTLB TOTAL     ACCESS:   11739326  HIT:   11338240  MISS:     401086  HIT %:    96.5834  MISS %:     3.4166   MPKI: 8.02172
DTLB LOAD TRANSLATION ACCESS:   11739326  HIT:   11338240  MISS:     401086  HIT %:    96.5834  MISS %:     3.4166   MPKI: 8.02172
DTLB PREFETCH  REQUESTED:          0  ISSUED:          0  USEFUL:          0  USELESS:          0
DTLB USEFUL LOAD PREFETCHES:          0 PREFETCH ISSUED TO LOWER LEVEL:          0  ACCURACY: -nan
DTLB TIMELY PREFETCHES:          0 LATE PREFETCHES: 0 DROPPED PREFETCHES: 0
DTLB PREFETCHES SAME FILL-ORIGIN LEVEL: 0 DIFFERENT FILL-ORIGIN LEVEL: 0
DTLB AVERAGE MISS LATENCY: 16.5757 cycles
DTLB RQ	ACCESS:   16805608	FORWARD:          0	MERGED:    4992924	TO_CACHE:   11812684

STLB TOTAL     ACCESS:    1448754  HIT:    1428925  MISS:      19829  HIT %:    98.6313  MISS %:    1.36869   MPKI: 0.39658
STLB LOAD TRANSLATION ACCESS:     783375  HIT:     763546  MISS:      19829  HIT %:    97.4688  MISS %:    2.53123   MPKI: 0.39658
STLB TRANSLATION FROM L1D PREFETCHER ACCESS:     665379  HIT:     665379  MISS:          0  HIT %:        100  MISS %:          0   MPKI: 0
STLB PREFETCH  REQUESTED:          0  ISSUED:          0  USEFUL:          0  USELESS:          0
STLB USEFUL LOAD PREFETCHES:          0 PREFETCH ISSUED TO LOWER LEVEL:          0  ACCURACY: -nan
STLB TIMELY PREFETCHES:          0 LATE PREFETCHES: 0 DROPPED PREFETCHES: 0
STLB PREFETCHES SAME FILL-ORIGIN LEVEL: 0 DIFFERENT FILL-ORIGIN LEVEL: 0
STLB AVERAGE MISS LATENCY: 157.839 cycles
STLB RQ	ACCESS:    1976989	FORWARD:          0	MERGED:     528235	TO_CACHE:    1448754

STLB Hit, L1D data hit: 0
STLB Hit, L2C data hit: 0
STLB Hit, LLC data hit: 0
STLB Hit, LLC data miss: 0
STLB STLB hints to L2: 0
L1D TOTAL     ACCESS:   15290202  HIT:   13157088  MISS:    2133114  HIT %:    86.0491  MISS %:    13.9509   MPKI: 42.6623
L1D LOAD      ACCESS:    8000977  HIT:    7451481  MISS:     549496  HIT %:    93.1321  MISS %:    6.86786   MPKI: 10.9899
L1D RFO       ACCESS:    6122352  HIT:    5139560  MISS:     982792  HIT %:    83.9475  MISS %:    16.0525   MPKI: 19.6558
L1D PREFETCH  ACCESS:    1166873  HIT:     566047  MISS:     600826  HIT %:    48.5097  MISS %:    51.4903   MPKI: 12.0165
L1D PREFETCH  REQUESTED:    2469976  ISSUED:    2387340  USEFUL:     318407  USELESS:     282365
L1D USEFUL LOAD PREFETCHES:     318407 PREFETCH ISSUED TO LOWER LEVEL:     619701  ACCURACY: 51.3807
L1D TIMELY PREFETCHES:     318407 LATE PREFETCHES: 18865 DROPPED PREFETCHES: 0
L1D PREFETCHES SAME FILL-ORIGIN LEVEL: 619701 DIFFERENT FILL-ORIGIN LEVEL: 0
L1D AVERAGE MISS LATENCY: 521623 cycles
L1D RQ	ACCESS:   11537732	FORWARD:          0	MERGED:    3365180	TO_CACHE:    8042743
L1D WQ	ACCESS:    8825676	FORWARD:     129869	MERGED:      62811	TO_CACHE:    8762865
L1D PQ	ACCESS:    1193726	FORWARD:          0	MERGED:         52	TO_CACHE:    1193614

L1D UNIQUE REGIONS ACCESSED: 0
L1D REGIONS CONFLICTS: 0
L1D Cross Page Prefetch Requests: 0
L1D Same Page Prefetch Requests: 1435778
L1D ROI Sum of L1D PQ occupancy: 25972663
L1D PREFETCHES PUSHED FROM L2C: 0
L1I TOTAL     ACCESS:    9815364  HIT:    7377776  MISS:    2437588  HIT %:    75.1656  MISS %:    24.8344   MPKI: 48.7518
L1I LOAD      ACCESS:    9815364  HIT:    7377776  MISS:    2437588  HIT %:    75.1656  MISS %:    24.8344   MPKI: 48.7518
L1I PREFETCH  REQUESTED:          0  ISSUED:          0  USEFUL:          0  USELESS:          0
L1I USEFUL LOAD PREFETCHES:          0 PREFETCH ISSUED TO LOWER LEVEL:          0  ACCURACY: -nan
L1I TIMELY PREFETCHES:          0 LATE PREFETCHES: 0 DROPPED PREFETCHES: 0
L1I PREFETCHES SAME FILL-ORIGIN LEVEL: 0 DIFFERENT FILL-ORIGIN LEVEL: 0
L1I AVERAGE MISS LATENCY: 16.3071 cycles
L1I RQ	ACCESS:   14510929	FORWARD:          0	MERGED:    3963870	TO_CACHE:   10547059

BTB TOTAL     ACCESS:    5338422  HIT:    5079378  MISS:     259044  HIT %:    95.1476  MISS %:    4.85245   MPKI: 5.18088
BTB BRANCH_DIRECT_JUMP	ACCESS:     443771  HIT:     441817  MISS:       1954
BTB BRANCH_INDIRECT	ACCESS:      50297  HIT:      50199  MISS:         98
BTB BRANCH_CONDITIONAL	ACCESS:    3011244  HIT:    3005231  MISS:       6013
BTB BRANCH_DIRECT_CALL	ACCESS:     756237  HIT:     752212  MISS:       4025
BTB BRANCH_INDIRECT_CALL	ACCESS:     160309  HIT:     130600  MISS:      29709
BTB BRANCH_RETURN	ACCESS:     916564  HIT:     699319  MISS:     217245
BTB BRANCH_OTHER ACCESS:          0  HIT:          0  MISS:          0

L2C TOTAL     ACCESS:    6090551  HIT:    4152610  MISS:    1937941  HIT %:    68.1812  MISS %:    31.8188   MPKI: 38.7588
L2C LOAD      ACCESS:    2968181  HIT:    2547710  MISS:     420471  HIT %:    85.8341  MISS %:    14.1659   MPKI: 8.40942
L2C DATA LOAD MPKI: 5.5124
L2C INSTRUCTION LOAD MPKI: 2.89702
L2C RFO       ACCESS:     982766  HIT:      31846  MISS:     950920  HIT %:    3.24045  MISS %:    96.7596   MPKI: 19.0184
L2C PREFETCH  ACCESS:     950539  HIT:     393792  MISS:     556747  HIT %:    41.4283  MISS %:    58.5717   MPKI: 11.1349
L2C DATA PREFETCH MPKI: 11.1349
L2C INSTRUCTION PREFETCH MPKI: 0
L2C WRITEBACK ACCESS:    1167743  HIT:    1166687  MISS:       1056  HIT %:    99.9096  MISS %:  0.0904309   MPKI: 0.02112
L2C LOAD TRANSLATION ACCESS:      21322  HIT:      12575  MISS:       8747  HIT %:    58.9766  MISS %:    41.0234   MPKI: 0.17494
L2C PREFETCH  REQUESTED:     373141  ISSUED:     373141  USEFUL:      58778  USELESS:     497633
L2C USEFUL LOAD PREFETCHES:      58778 PREFETCH ISSUED TO LOWER LEVEL:     561587  ACCURACY: 10.4664
L2C TIMELY PREFETCHES:      58778 LATE PREFETCHES: 4840 DROPPED PREFETCHES: 0
L2C PREFETCHES SAME FILL-ORIGIN LEVEL: 143419 DIFFERENT FILL-ORIGIN LEVEL: 0
L2C AVERAGE MISS LATENCY: 194.036 cycles
L2C RQ	ACCESS:    3972323	FORWARD:          0	MERGED:          0	TO_CACHE:    3972269
L2C WQ	ACCESS:    1167743	FORWARD:         55	MERGED:          0	TO_CACHE:    1167743
L2C PQ	ACCESS:     992842	FORWARD:          0	MERGED:      16784	TO_CACHE:     976057

L2C Instructions Evicting Data 134959
L2C Translations Evicting Data 8067
L2C Data Evicting Data 1640029
L2C Instructions Evicting Instructions 9107
L2C Translations Evicting Instructions 631
L2C Data Evicting Instructions 135323
L2C Instructions Evicting Translations 785
L2C Translations Evicting Translations 49
L2C Data Evicting Translations 7935
L2C Dense regions hint from L2: 0
PSCL5 TOTAL     ACCESS:      19829  HIT:      19829  MISS:          0  HIT %:        100  MISS %:          0   MPKI: 0
PSCL5 LOAD TRANSLATION ACCESS:      19829  HIT:      19829  MISS:          0  HIT %:        100  MISS %:          0   MPKI: 0
PSCL5 PREFETCH  REQUESTED:          0  ISSUED:          0  USEFUL:          0  USELESS:          0
PSCL5 USEFUL LOAD PREFETCHES:          0 PREFETCH ISSUED TO LOWER LEVEL:          0  ACCURACY: -nan
PSCL5 TIMELY PREFETCHES:          0 LATE PREFETCHES: 0 DROPPED PREFETCHES: 0
PSCL5 PREFETCHES SAME FILL-ORIGIN LEVEL: 0 DIFFERENT FILL-ORIGIN LEVEL: 0

PSCL4 TOTAL     ACCESS:      19292  HIT:      19244  MISS:         48  HIT %:    99.7512  MISS %:   0.248808   MPKI: 0.00096
PSCL4 LOAD TRANSLATION ACCESS:      19292  HIT:      19244  MISS:         48  HIT %:    99.7512  MISS %:   0.248808   MPKI: 0.00096
PSCL4 PREFETCH  REQUESTED:          0  ISSUED:          0  USEFUL:          0  USELESS:          0
PSCL4 USEFUL LOAD PREFETCHES:          0 PREFETCH ISSUED TO LOWER LEVEL:          0  ACCURACY: -nan
PSCL4 TIMELY PREFETCHES:          0 LATE PREFETCHES: 0 DROPPED PREFETCHES: 0
PSCL4 PREFETCHES SAME FILL-ORIGIN LEVEL: 0 DIFFERENT FILL-ORIGIN LEVEL: 0

PSCL3 TOTAL     ACCESS:      19526  HIT:      19478  MISS:         48  HIT %:    99.7542  MISS %:   0.245826   MPKI: 0.00096
PSCL3 LOAD TRANSLATION ACCESS:      19526  HIT:      19478  MISS:         48  HIT %:    99.7542  MISS %:   0.245826   MPKI: 0.00096
PSCL3 PREFETCH  REQUESTED:          0  ISSUED:          0  USEFUL:          0  USELESS:          0
PSCL3 USEFUL LOAD PREFETCHES:          0 PREFETCH ISSUED TO LOWER LEVEL:          0  ACCURACY: -nan
PSCL3 TIMELY PREFETCHES:          0 LATE PREFETCHES: 0 DROPPED PREFETCHES: 0
PSCL3 PREFETCHES SAME FILL-ORIGIN LEVEL: 0 DIFFERENT FILL-ORIGIN LEVEL: 0

PSCL2 TOTAL     ACCESS:      19829  HIT:      18407  MISS:       1422  HIT %:    92.8287  MISS %:    7.17131   MPKI: 0.02844
PSCL2 LOAD TRANSLATION ACCESS:      19829  HIT:      18407  MISS:       1422  HIT %:    92.8287  MISS %:    7.17131   MPKI: 0.02844
PSCL2 PREFETCH  REQUESTED:          0  ISSUED:          0  USEFUL:          0  USELESS:          0
PSCL2 USEFUL LOAD PREFETCHES:          0 PREFETCH ISSUED TO LOWER LEVEL:          0  ACCURACY: -nan
PSCL2 TIMELY PREFETCHES:          0 LATE PREFETCHES: 0 DROPPED PREFETCHES: 0
PSCL2 PREFETCHES SAME FILL-ORIGIN LEVEL: 0 DIFFERENT FILL-ORIGIN LEVEL: 0

LLC TOTAL     ACCESS:    3043799  HIT:    1749295  MISS:    1294504  HIT %:    57.4708  MISS %:    42.5292   MPKI: 25.8901
LLC LOAD      ACCESS:     416000  HIT:     342749  MISS:      73251  HIT %:    82.3916  MISS %:    17.6084   MPKI: 1.46502
LLC RFO       ACCESS:     950544  HIT:     182393  MISS:     768151  HIT %:    19.1883  MISS %:    80.8117   MPKI: 15.363
LLC PREFETCH  ACCESS:     561585  HIT:     128448  MISS:     433137  HIT %:    22.8724  MISS %:    77.1276   MPKI: 8.66274
LLC WRITEBACK ACCESS:    1106923  HIT:    1092188  MISS:      14735  HIT %:    98.6688  MISS %:    1.33117   MPKI: 0.2947
LLC LOAD TRANSLATION ACCESS:       8747  HIT:       3517  MISS:       5230  HIT %:    40.2081  MISS %:    59.7919   MPKI: 0.1046
LLC PREFETCH  REQUESTED:          0  ISSUED:          0  USEFUL:       6193  USELESS:     427012
LLC USEFUL LOAD PREFETCHES:       6193 PREFETCH ISSUED TO LOWER LEVEL:     433137  ACCURACY: 1.4298
LLC TIMELY PREFETCHES:       6193 LATE PREFETCHES: 0 DROPPED PREFETCHES: 0
LLC PREFETCHES SAME FILL-ORIGIN LEVEL: 0 DIFFERENT FILL-ORIGIN LEVEL: 0
LLC AVERAGE MISS LATENCY: 243.89 cycles
LLC RQ	ACCESS:    1375298	FORWARD:          0	MERGED:          0	TO_CACHE:    1375291
LLC WQ	ACCESS:    1106923	FORWARD:          9	MERGED:          0	TO_CACHE:    1106923
LLC PQ	ACCESS:     561587	FORWARD:          0	MERGED:          0	TO_CACHE:     561585

LLC Dense regions hint to LLC: 0

RAW hits: 882100
Loads Generated: 12419836
Loads sent to L1D: 11537732
Stores Generated: 8825673
Stores sent to L1D: 8825676
Major fault: 0 Minor fault: 14275
Allocated PAGES: 14275

stream: 
stream:times selected: 2338190
stream:pref_filled: 696370
stream:pref_useful: 378426
stream:pref_late: 18287
stream:misses: 16263
stream:misses_by_poll: 0

CS: 
CS:times selected: 2057311
CS:pref_filled: 5475
CS:pref_useful: 5213
CS:pref_late: 238
CS:misses: 19430
CS:misses_by_poll: 5

CPLX: 
CPLX:times selected: 276668
CPLX:pref_filled: 20890
CPLX:pref_useful: 1407
CPLX:pref_late: 218
CPLX:misses: 47437
CPLX:misses_by_poll: 14

NL_L1: 
NL:times selected: 916
NL:pref_filled: 288
NL:pref_useful: 11
NL:pref_late: 6
NL:misses: 421
NL:misses_by_poll: 0

total selections: 4673085
total_filled: 600826
total_useful: 318407
total_late: 19612
total_polluted: 19
total_misses_after_warmup: 591263
conflicts: 2694298
Degree Incremented Times: 12503
Degree Decremented Times: 114136

L1 IP Table Write Accesses: 5181358
L1 IP Table Read Accesses: 2487060
L1 RST Write Accesses: 1939247
L1 RST Read Accesses: 3878494
L1 CSPT Write Accesses: 1939247
L1 CSPT Read Accesses: 2167613
L1 RR Filter Tag Write Accesses: 1276362
L1 RR Filter Tag Read Accesses: 470478247
L1 IP Table Tag Write Accesses: 8042744
L1 IP Table Tag Read Accesses: 8042744
L1 RST Tag Write Accesses: 0
L1 RST Tag Read Accesses: 17532534
L1 RR Filter Write Accesses: 0
L1 RR Filter Read Accesses: 16257718
test: 134878
L2 IP Table Read Accesses: 1917548
L2 IP Table Write Accesses: 2044783
L2 IP Table Tag Read Accesses: 1143152
L2 IP Table Tag Write Accesses: 1143152

DRAM Statistics
 CHANNEL 0
 RQ ROW_BUFFER_HIT:     447023  ROW_BUFFER_MISS:     832570
 DBUS_CONGESTED:        452
 WQ ROW_BUFFER_HIT:     177721  ROW_BUFFER_MISS:     659525  FULL:          0

 AVG_CONGESTED_CYCLE: 3
 All warmup complete: 2
Channel 0 Bank busy for read cycles: 0
Channel 0 Bank busy for write cycles: 0
Channel 0
Rank 0
0banks busy for read cycles: 38424719
0banks busy for write cycles: 44988
1banks busy for read cycles: 13941652
1banks busy for write cycles: 5655672
2banks busy for read cycles: 9847392
2banks busy for write cycles: 2647538
3banks busy for read cycles: 5113702
3banks busy for write cycles: 1561296
4banks busy for read cycles: 4721369
4banks busy for write cycles: 1208287
5banks busy for read cycles: 2223640
5banks busy for write cycles: 1019104
6banks busy for read cycles: 1825161
6banks busy for write cycles: 1046617
7banks busy for read cycles: 2468382
7banks busy for write cycles: 1915274
8banks busy for read cycles: 5477740
8banks busy for write cycles: 12545008

CPU 0 Branch Prediction Accuracy: 96.6284% MPKI: 5.54662 Average ROB Occupancy at Mispredict: 47.9934
Branch types
NOT_BRANCH: 41774097 83.5482%
BRANCH_DIRECT_JUMP: 443771 0.887542%
BRANCH_INDIRECT: 50297 0.100594%
BRANCH_CONDITIONAL: 5898380 11.7968%
BRANCH_DIRECT_CALL: 756237 1.51247%
BRANCH_INDIRECT_CALL: 160309 0.320618%
BRANCH_RETURN: 916564 1.83313%
BRANCH_OTHER: 0 0%

@sumon_overall_L1D    318407     18865    282365    600826   2387340   2469976
@Sumon_Early_by_class_L1D    311204      4450      1197         6
@Sumon_Late_by_class_L1D     17617       225       181         6

@Sumon_Early_by_cycle_L1D     62772    169553     72024      1864       356      1350      1231       761      5744      1981       465       306
@Sumon_Late_by_cycle_L1D      8549      8961      1342        11         1         1         0         0         0         0         0         0
@Sumon_Early_stream_L1D     61354    165268     71447      1631       295      1145      1078       671      5631      1924       458       302
@Sumon_Early_CS_L1D      1044      3223       152        24         1         0         0         0         5         1         0         0
@Sumon_Early_CPLX_L1D       192        49        89       204        57       199       151        90       101        54         7         4
@Sumon_Late_stream_L1D      7677      8592      1335        11         1         1         0         0         0         0         0         0
@Sumon_Late_CS_L1D       120        98         7         0         0         0         0         0         0         0         0         0
@Sumon_Late_CPLX_L1D        50       131         0         0         0         0         0         0         0         0         0         0
@sumon_overall_L2C     58778      4840    497633    556747    373141    373141
@Sumon_Early_by_class_L2C      6628        35       446         0
@Sumon_Late_by_class_L2C         0         0         0         0

@Sumon_Early_by_cycle_L2C      6724      5496      5981      2442      2117     11487      2594      1133      6043      1736      1729     11296
@Sumon_Late_by_cycle_L2C      2851      1966        23         0         0         0         0         0         0         0         0         0
@Sumon_Early_stream_L2C         0         0         0         0         0         1       120       700       697       606       671      3833
@Sumon_Early_CS_L2C         1         1         1         0         0         0         0         0        25         6         1         0
@Sumon_Early_CPLX_L2C         0         0         0         0         0         0         4       101        69        14        15       243
@Sumon_Late_stream_L2C         0         0         0         0         0         0         0         0         0         0         0         0
@Sumon_Late_CS_L2C         0         0         0         0         0         0         0         0         0         0         0         0
@Sumon_Late_CPLX_L2C         0         0         0         0         0         0         0         0         0         0         0         0
DRAM PAGES: 1048576
Allocated PAGES: 14275
