
*** ChampSim Multicore Out-of-Order Simulator ***

Warmup Instructions: 10000000
Simulation Instructions: 50000000
Number of CPUs: 1
LLC sets: 2048
LLC ways: 16
Off-chip DRAM Size: 4096 MB Channels: 1 Width: 64-bit Data Rate: 6400 MT/s
CPU 0 runs traces/clientserver/server_020.champsimtrace.xz
.xz
CPU 0 Bimodal branch predictor
BTB has LRU replacement policy
ITLB has LRU replacement policy
DTLB has LRU replacement policy
STLB has LRU replacement policy
L1I has LRU replacement policy
IP Table Entries: 256
L1D has LRU replacement policy
IP_Table L2 entries: 256
Initialize DRRIP state for L2C
LLC has LRU replacement policy
Heartbeat CPU 0 instructions: 10000003 cycles: 3151799 heartbeat IPC: 3.17279 cumulative IPC: 3.17279 (Simulation time: 0 hr 19 min 14 sec) 

Warmup complete CPU 0 instructions: 10000003 cycles: 3151799 (Simulation time: 0 hr 19 min 14 sec) 

Heartbeat CPU 0 instructions: 20000001 cycles: 26741459 heartbeat IPC: 0.423914 cumulative IPC: 0.423914 (Simulation time: 0 hr 43 min 55 sec) 
Heartbeat CPU 0 instructions: 30000000 cycles: 50327983 heartbeat IPC: 0.423971 cumulative IPC: 0.423943 (Simulation time: 1 hr 8 min 32 sec) 
Heartbeat CPU 0 instructions: 40000001 cycles: 73924711 heartbeat IPC: 0.423788 cumulative IPC: 0.423891 (Simulation time: 3 hr 16 min 45 sec) 
Heartbeat CPU 0 instructions: 50000000 cycles: 97491495 heartbeat IPC: 0.424326 cumulative IPC: 0.424 (Simulation time: 3 hr 36 min 6 sec) 
Heartbeat CPU 0 instructions: 60000000 cycles: 121040885 heartbeat IPC: 0.424639 cumulative IPC: 0.424127 (Simulation time: 3 hr 50 min 29 sec) 
Finished CPU 0 instructions: 50000003 cycles: 117889093 cumulative IPC: 0.424127 (Simulation time: 3 hr 50 min 29 sec) 

ChampSim completed all CPUs

Region of Interest Statistics

CPU 0 cumulative IPC: 0.424127 instructions: 50000003 cycles: 117889093
ITLB TOTAL     ACCESS:    8929372  HIT:    8557993  MISS:     371379  HIT %:    95.8409  MISS %:    4.15907   MPKI: 7.42758
ITLB LOAD TRANSLATION ACCESS:    8929372  HIT:    8557993  MISS:     371379  HIT %:    95.8409  MISS %:    4.15907   MPKI: 7.42758
ITLB PREFETCH  REQUESTED:          0  ISSUED:          0  USEFUL:          0  USELESS:          0
ITLB USEFUL LOAD PREFETCHES:          0 PREFETCH ISSUED TO LOWER LEVEL:          0  ACCURACY: -nan
ITLB TIMELY PREFETCHES:          0 LATE PREFETCHES: 0 DROPPED PREFETCHES: 0
ITLB PREFETCHES SAME FILL-ORIGIN LEVEL: 0 DIFFERENT FILL-ORIGIN LEVEL: 0
ITLB AVERAGE MISS LATENCY: 9.48867 cycles
ITLB RQ	ACCESS:   10503273	FORWARD:          0	MERGED:    1454148	TO_CACHE:    9049125

DTLB TOTAL     ACCESS:   11637528  HIT:   11214796  MISS:     422732  HIT %:    96.3675  MISS %:    3.63249   MPKI: 8.45464
DTLB LOAD TRANSLATION ACCESS:   11637528  HIT:   11214796  MISS:     422732  HIT %:    96.3675  MISS %:    3.63249   MPKI: 8.45464
DTLB PREFETCH  REQUESTED:          0  ISSUED:          0  USEFUL:          0  USELESS:          0
DTLB USEFUL LOAD PREFETCHES:          0 PREFETCH ISSUED TO LOWER LEVEL:          0  ACCURACY: -nan
DTLB TIMELY PREFETCHES:          0 LATE PREFETCHES: 0 DROPPED PREFETCHES: 0
DTLB PREFETCHES SAME FILL-ORIGIN LEVEL: 0 DIFFERENT FILL-ORIGIN LEVEL: 0
DTLB AVERAGE MISS LATENCY: 19.0139 cycles
DTLB RQ	ACCESS:   16628528	FORWARD:          0	MERGED:    4917046	TO_CACHE:   11711482

STLB TOTAL     ACCESS:    1467074  HIT:    1434260  MISS:      32814  HIT %:    97.7633  MISS %:     2.2367   MPKI: 0.65628
STLB LOAD TRANSLATION ACCESS:     794111  HIT:     761297  MISS:      32814  HIT %:    95.8678  MISS %:    4.13217   MPKI: 0.65628
STLB TRANSLATION FROM L1D PREFETCHER ACCESS:     672963  HIT:     672963  MISS:          0  HIT %:        100  MISS %:          0   MPKI: 0
STLB PREFETCH  REQUESTED:          0  ISSUED:          0  USEFUL:          0  USELESS:          0
STLB USEFUL LOAD PREFETCHES:          0 PREFETCH ISSUED TO LOWER LEVEL:          0  ACCURACY: -nan
STLB TIMELY PREFETCHES:          0 LATE PREFETCHES: 0 DROPPED PREFETCHES: 0
STLB PREFETCHES SAME FILL-ORIGIN LEVEL: 0 DIFFERENT FILL-ORIGIN LEVEL: 0
STLB AVERAGE MISS LATENCY: 134.228 cycles
STLB RQ	ACCESS:    2092381	FORWARD:          0	MERGED:     625307	TO_CACHE:    1467074

STLB Hit, L1D data hit: 0
STLB Hit, L2C data hit: 0
STLB Hit, LLC data hit: 0
STLB Hit, LLC data miss: 0
STLB STLB hints to L2: 0
L1D TOTAL     ACCESS:   15163422  HIT:   12932903  MISS:    2230519  HIT %:    85.2901  MISS %:    14.7099   MPKI: 44.6104
L1D LOAD      ACCESS:    7960444  HIT:    7379004  MISS:     581440  HIT %:    92.6959  MISS %:    7.30412   MPKI: 11.6288
L1D RFO       ACCESS:    5940802  HIT:    4979907  MISS:     960895  HIT %:    83.8255  MISS %:    16.1745   MPKI: 19.2179
L1D PREFETCH  ACCESS:    1262176  HIT:     573992  MISS:     688184  HIT %:    45.4764  MISS %:    54.5236   MPKI: 13.7637
L1D PREFETCH  REQUESTED:    2655820  ISSUED:    2596653  USEFUL:     310303  USELESS:     377835
L1D USEFUL LOAD PREFETCHES:     310303 PREFETCH ISSUED TO LOWER LEVEL:     709676  ACCURACY: 43.7246
L1D TIMELY PREFETCHES:     310303 LATE PREFETCHES: 21463 DROPPED PREFETCHES: 0
L1D PREFETCHES SAME FILL-ORIGIN LEVEL: 709676 DIFFERENT FILL-ORIGIN LEVEL: 0
L1D AVERAGE MISS LATENCY: 596847 cycles
L1D RQ	ACCESS:   11490320	FORWARD:          0	MERGED:    3363274	TO_CACHE:    8002912
L1D WQ	ACCESS:    8689751	FORWARD:     124215	MERGED:      64135	TO_CACHE:    8625616
L1D PQ	ACCESS:    1298383	FORWARD:          0	MERGED:         32	TO_CACHE:    1298270

L1D UNIQUE REGIONS ACCESSED: 0
L1D REGIONS CONFLICTS: 0
L1D Cross Page Prefetch Requests: 0
L1D Same Page Prefetch Requests: 1555388
L1D ROI Sum of L1D PQ occupancy: 22085766
L1D PREFETCHES PUSHED FROM L2C: 0
L1I TOTAL     ACCESS:    9788368  HIT:    7401156  MISS:    2387212  HIT %:    75.6117  MISS %:    24.3883   MPKI: 47.7442
L1I LOAD      ACCESS:    9788368  HIT:    7401156  MISS:    2387212  HIT %:    75.6117  MISS %:    24.3883   MPKI: 47.7442
L1I PREFETCH  REQUESTED:          0  ISSUED:          0  USEFUL:          0  USELESS:          0
L1I USEFUL LOAD PREFETCHES:          0 PREFETCH ISSUED TO LOWER LEVEL:          0  ACCURACY: -nan
L1I TIMELY PREFETCHES:          0 LATE PREFETCHES: 0 DROPPED PREFETCHES: 0
L1I PREFETCHES SAME FILL-ORIGIN LEVEL: 0 DIFFERENT FILL-ORIGIN LEVEL: 0
L1I AVERAGE MISS LATENCY: 16.7047 cycles
L1I RQ	ACCESS:   14470276	FORWARD:          0	MERGED:    3967003	TO_CACHE:   10503273

BTB TOTAL     ACCESS:    5369972  HIT:    5103286  MISS:     266686  HIT %:    95.0338  MISS %:    4.96625   MPKI: 5.33372
BTB BRANCH_DIRECT_JUMP	ACCESS:     456401  HIT:     454412  MISS:       1989
BTB BRANCH_INDIRECT	ACCESS:      50013  HIT:      49833  MISS:        180
BTB BRANCH_CONDITIONAL	ACCESS:    3043084  HIT:    3036854  MISS:       6230
BTB BRANCH_DIRECT_CALL	ACCESS:     742782  HIT:     738717  MISS:       4065
BTB BRANCH_INDIRECT_CALL	ACCESS:     167454  HIT:     138660  MISS:      28794
BTB BRANCH_RETURN	ACCESS:     910238  HIT:     684810  MISS:     225428
BTB BRANCH_OTHER ACCESS:          0  HIT:          0  MISS:          0

L2C TOTAL     ACCESS:    6165006  HIT:    4162332  MISS:    2002674  HIT %:    67.5155  MISS %:    32.4845   MPKI: 40.0535
L2C LOAD      ACCESS:    2947173  HIT:    2574327  MISS:     372846  HIT %:     87.349  MISS %:     12.651   MPKI: 7.45692
L2C DATA LOAD MPKI: 5.55518
L2C INSTRUCTION LOAD MPKI: 1.90174
L2C RFO       ACCESS:     960829  HIT:      33163  MISS:     927666  HIT %:     3.4515  MISS %:    96.5485   MPKI: 18.5533
L2C PREFETCH  ACCESS:    1060780  HIT:     392578  MISS:     668202  HIT %:    37.0084  MISS %:    62.9916   MPKI: 13.364
L2C DATA PREFETCH MPKI: 13.364
L2C INSTRUCTION PREFETCH MPKI: 0
L2C WRITEBACK ACCESS:    1160015  HIT:    1144011  MISS:      16004  HIT %:    98.6204  MISS %:    1.37964   MPKI: 0.32008
L2C LOAD TRANSLATION ACCESS:      36209  HIT:      18253  MISS:      17956  HIT %:    50.4101  MISS %:    49.5899   MPKI: 0.35912
L2C PREFETCH  REQUESTED:     395086  ISSUED:     395085  USEFUL:      60013  USELESS:     607874
L2C USEFUL LOAD PREFETCHES:      60013 PREFETCH ISSUED TO LOWER LEVEL:     671494  ACCURACY: 8.93724
L2C TIMELY PREFETCHES:      60013 LATE PREFETCHES: 3292 DROPPED PREFETCHES: 0
L2C PREFETCHES SAME FILL-ORIGIN LEVEL: 164225 DIFFERENT FILL-ORIGIN LEVEL: 0
L2C AVERAGE MISS LATENCY: 194.551 cycles
L2C RQ	ACCESS:    3944264	FORWARD:          0	MERGED:          0	TO_CACHE:    3944211
L2C WQ	ACCESS:    1160015	FORWARD:         60	MERGED:          0	TO_CACHE:    1160015
L2C PQ	ACCESS:    1104761	FORWARD:          0	MERGED:      20648	TO_CACHE:    1084106

L2C Instructions Evicting Data 87971
L2C Translations Evicting Data 17031
L2C Data Evicting Data 1768883
L2C Instructions Evicting Instructions 6390
L2C Translations Evicting Instructions 755
L2C Data Evicting Instructions 87863
L2C Instructions Evicting Translations 726
L2C Translations Evicting Translations 170
L2C Data Evicting Translations 16881
L2C Dense regions hint from L2: 0
PSCL5 TOTAL     ACCESS:      32814  HIT:      32814  MISS:          0  HIT %:        100  MISS %:          0   MPKI: 0
PSCL5 LOAD TRANSLATION ACCESS:      32814  HIT:      32814  MISS:          0  HIT %:        100  MISS %:          0   MPKI: 0
PSCL5 PREFETCH  REQUESTED:          0  ISSUED:          0  USEFUL:          0  USELESS:          0
PSCL5 USEFUL LOAD PREFETCHES:          0 PREFETCH ISSUED TO LOWER LEVEL:          0  ACCURACY: -nan
PSCL5 TIMELY PREFETCHES:          0 LATE PREFETCHES: 0 DROPPED PREFETCHES: 0
PSCL5 PREFETCHES SAME FILL-ORIGIN LEVEL: 0 DIFFERENT FILL-ORIGIN LEVEL: 0

PSCL4 TOTAL     ACCESS:      32162  HIT:      32065  MISS:         97  HIT %:    99.6984  MISS %:   0.301598   MPKI: 0.00194
PSCL4 LOAD TRANSLATION ACCESS:      32162  HIT:      32065  MISS:         97  HIT %:    99.6984  MISS %:   0.301598   MPKI: 0.00194
PSCL4 PREFETCH  REQUESTED:          0  ISSUED:          0  USEFUL:          0  USELESS:          0
PSCL4 USEFUL LOAD PREFETCHES:          0 PREFETCH ISSUED TO LOWER LEVEL:          0  ACCURACY: -nan
PSCL4 TIMELY PREFETCHES:          0 LATE PREFETCHES: 0 DROPPED PREFETCHES: 0
PSCL4 PREFETCHES SAME FILL-ORIGIN LEVEL: 0 DIFFERENT FILL-ORIGIN LEVEL: 0

PSCL3 TOTAL     ACCESS:      32548  HIT:      32451  MISS:         97  HIT %:     99.702  MISS %:   0.298021   MPKI: 0.00194
PSCL3 LOAD TRANSLATION ACCESS:      32548  HIT:      32451  MISS:         97  HIT %:     99.702  MISS %:   0.298021   MPKI: 0.00194
PSCL3 PREFETCH  REQUESTED:          0  ISSUED:          0  USEFUL:          0  USELESS:          0
PSCL3 USEFUL LOAD PREFETCHES:          0 PREFETCH ISSUED TO LOWER LEVEL:          0  ACCURACY: -nan
PSCL3 TIMELY PREFETCHES:          0 LATE PREFETCHES: 0 DROPPED PREFETCHES: 0
PSCL3 PREFETCHES SAME FILL-ORIGIN LEVEL: 0 DIFFERENT FILL-ORIGIN LEVEL: 0

PSCL2 TOTAL     ACCESS:      32814  HIT:      29588  MISS:       3226  HIT %:    90.1688  MISS %:    9.83117   MPKI: 0.06452
PSCL2 LOAD TRANSLATION ACCESS:      32814  HIT:      29588  MISS:       3226  HIT %:    90.1688  MISS %:    9.83117   MPKI: 0.06452
PSCL2 PREFETCH  REQUESTED:          0  ISSUED:          0  USEFUL:          0  USELESS:          0
PSCL2 USEFUL LOAD PREFETCHES:          0 PREFETCH ISSUED TO LOWER LEVEL:          0  ACCURACY: -nan
PSCL2 TIMELY PREFETCHES:          0 LATE PREFETCHES: 0 DROPPED PREFETCHES: 0
PSCL2 PREFETCHES SAME FILL-ORIGIN LEVEL: 0 DIFFERENT FILL-ORIGIN LEVEL: 0

LLC TOTAL     ACCESS:    3079540  HIT:    1674051  MISS:    1405489  HIT %:    54.3604  MISS %:    45.6396   MPKI: 28.1098
LLC LOAD      ACCESS:     369829  HIT:     231824  MISS:     138005  HIT %:    62.6841  MISS %:    37.3159   MPKI: 2.7601
LLC RFO       ACCESS:     927388  HIT:     132759  MISS:     794629  HIT %:    14.3154  MISS %:    85.6846   MPKI: 15.8926
LLC PREFETCH  ACCESS:     671494  HIT:     209776  MISS:     461718  HIT %:    31.2402  MISS %:    68.7598   MPKI: 9.23436
LLC WRITEBACK ACCESS:    1092873  HIT:    1090867  MISS:       2006  HIT %:    99.8164  MISS %:   0.183553   MPKI: 0.04012
LLC LOAD TRANSLATION ACCESS:      17956  HIT:       8825  MISS:       9131  HIT %:    49.1479  MISS %:    50.8521   MPKI: 0.18262
LLC PREFETCH  REQUESTED:          0  ISSUED:          0  USEFUL:      12557  USELESS:     448867
LLC USEFUL LOAD PREFETCHES:      12557 PREFETCH ISSUED TO LOWER LEVEL:     461718  ACCURACY: 2.71963
LLC TIMELY PREFETCHES:      12557 LATE PREFETCHES: 0 DROPPED PREFETCHES: 0
LLC PREFETCHES SAME FILL-ORIGIN LEVEL: 0 DIFFERENT FILL-ORIGIN LEVEL: 0
LLC AVERAGE MISS LATENCY: 233.173 cycles
LLC RQ	ACCESS:    1315176	FORWARD:          0	MERGED:          0	TO_CACHE:    1315173
LLC WQ	ACCESS:    1092872	FORWARD:          3	MERGED:          0	TO_CACHE:    1092872
LLC PQ	ACCESS:     671494	FORWARD:          0	MERGED:          0	TO_CACHE:     671494

LLC Dense regions hint to LLC: 0

RAW hits: 889202
Loads Generated: 12379521
Loads sent to L1D: 11490320
Stores Generated: 8689727
Stores sent to L1D: 8689751
Major fault: 0 Minor fault: 14374
Allocated PAGES: 14374

stream: 
stream:times selected: 2334389
stream:pref_filled: 792551
stream:pref_useful: 367627
stream:pref_late: 20812
stream:misses: 17019
stream:misses_by_poll: 0

CS: 
CS:times selected: 2005788
CS:pref_filled: 6533
CS:pref_useful: 6230
CS:pref_late: 283
CS:misses: 21405
CS:misses_by_poll: 5

CPLX: 
CPLX:times selected: 325009
CPLX:pref_filled: 22279
CPLX:pref_useful: 1162
CPLX:pref_late: 234
CPLX:misses: 57180
CPLX:misses_by_poll: 11

NL_L1: 
NL:times selected: 1059
NL:pref_filled: 412
NL:pref_useful: 20
NL:pref_late: 15
NL:misses: 516
NL:misses_by_poll: 0

total selections: 4666245
total_filled: 688184
total_useful: 310303
total_late: 22203
total_polluted: 16
total_misses_after_warmup: 623907
conflicts: 2649007
Degree Incremented Times: 104400
Degree Decremented Times: 187394

L1 IP Table Write Accesses: 5181304
L1 IP Table Read Accesses: 2532297
L1 RST Write Accesses: 1939070
L1 RST Read Accesses: 3878140
L1 CSPT Write Accesses: 1939070
L1 CSPT Read Accesses: 2207214
L1 RR Filter Tag Write Accesses: 1357550
L1 RR Filter Tag Read Accesses: 466852134
L1 IP Table Tag Write Accesses: 8002911
L1 IP Table Tag Read Accesses: 8002911
L1 RST Tag Write Accesses: 0
L1 RST Tag Read Accesses: 17660684
L1 RR Filter Write Accesses: 0
L1 RR Filter Read Accesses: 16134472
test: 170028
L2 IP Table Read Accesses: 2132621
L2 IP Table Write Accesses: 2260390
L2 IP Table Tag Read Accesses: 1260700
L2 IP Table Tag Write Accesses: 1260700

DRAM Statistics
 CHANNEL 0
 RQ ROW_BUFFER_HIT:     441235  ROW_BUFFER_MISS:     962068
 DBUS_CONGESTED:        445
 WQ ROW_BUFFER_HIT:     220285  ROW_BUFFER_MISS:     662034  FULL:          0

 AVG_CONGESTED_CYCLE: 4
 All warmup complete: 2
Channel 0 Bank busy for read cycles: 0
Channel 0 Bank busy for write cycles: 0
Channel 0
Rank 0
0banks busy for read cycles: 38623890
0banks busy for write cycles: 45979
1banks busy for read cycles: 14709563
1banks busy for write cycles: 5716467
2banks busy for read cycles: 10535651
2banks busy for write cycles: 3158218
3banks busy for read cycles: 4667113
3banks busy for write cycles: 2072073
4banks busy for read cycles: 5463217
4banks busy for write cycles: 1614440
5banks busy for read cycles: 2941440
5banks busy for write cycles: 1360606
6banks busy for read cycles: 2186602
6banks busy for write cycles: 1339241
7banks busy for read cycles: 3476956
7banks busy for write cycles: 2157928
8banks busy for read cycles: 5832991
8banks busy for write cycles: 11986719

CPU 0 Branch Prediction Accuracy: 96.2778% MPKI: 6.17182 Average ROB Occupancy at Mispredict: 52.382
Branch types
NOT_BRANCH: 41709094 83.4182%
BRANCH_DIRECT_JUMP: 456401 0.912802%
BRANCH_INDIRECT: 50013 0.100026%
BRANCH_CONDITIONAL: 5963707 11.9274%
BRANCH_DIRECT_CALL: 742782 1.48556%
BRANCH_INDIRECT_CALL: 167454 0.334908%
BRANCH_RETURN: 910238 1.82048%
BRANCH_OTHER: 0 0%

@sumon_overall_L1D    310303     21463    377835    688184   2596653   2655820
@Sumon_Early_by_class_L1D    302588      5260       986        14
@Sumon_Late_by_class_L1D     20122       275       211        14

@Sumon_Early_by_cycle_L1D     65900    168699     62898      1197       298      1689      1207       758      4877      2010       509       261
@Sumon_Late_by_cycle_L1D      9734     10030      1690         9         0         0         0         0         0         0         0         0
@Sumon_Early_stream_L1D     64146    164081     62282      1066       250      1469      1061       703      4833      1939       501       257
@Sumon_Early_CS_L1D      1302      3696       225        24         2         4         7         0         0         0         0         0
@Sumon_Early_CPLX_L1D       230        51        73        97        45       202       135        53        44        45         8         3
@Sumon_Late_stream_L1D      8873      9569      1671         9         0         0         0         0         0         0         0         0
@Sumon_Late_CS_L1D       145       111        19         0         0         0         0         0         0         0         0         0
@Sumon_Late_CPLX_L1D        36       175         0         0         0         0         0         0         0         0         0         0
@sumon_overall_L2C     60013      3292    607874    668202    395085    395086
@Sumon_Early_by_class_L2C      7435        44       267         0
@Sumon_Late_by_class_L2C         0         0         0         0

@Sumon_Early_by_cycle_L2C      7626      6153      5518      2086      1732     11439      2857      1279      5978      2786      2495     10064
@Sumon_Late_by_cycle_L2C      2403       882         7         0         0         0         0         0         0         0         0         0
@Sumon_Early_stream_L2C         0         0         0         0         0         8       251       790       661       708      1018      3999
@Sumon_Early_CS_L2C         0         1         0         0         0         1         4        15        18         5         0         0
@Sumon_Early_CPLX_L2C         0         0         0         0         0         0        15       104        17         8        22       101
@Sumon_Late_stream_L2C         0         0         0         0         0         0         0         0         0         0         0         0
@Sumon_Late_CS_L2C         0         0         0         0         0         0         0         0         0         0         0         0
@Sumon_Late_CPLX_L2C         0         0         0         0         0         0         0         0         0         0         0         0
DRAM PAGES: 1048576
Allocated PAGES: 14374
