
*** ChampSim Multicore Out-of-Order Simulator ***

Warmup Instructions: 10000000
Simulation Instructions: 50000000
Number of CPUs: 1
LLC sets: 2048
LLC ways: 16
Off-chip DRAM Size: 4096 MB Channels: 1 Width: 64-bit Data Rate: 6400 MT/s
CPU 0 runs traces/clientserver/server_012.champsimtrace.xz
.xz
CPU 0 Bimodal branch predictor
BTB has LRU replacement policy
ITLB has LRU replacement policy
DTLB has LRU replacement policy
STLB has LRU replacement policy
L1I has LRU replacement policy
IP Table Entries: 256
L1D has LRU replacement policy
IP_Table L2 entries: 256
Initialize DRRIP state for L2C
LLC has LRU replacement policy
Heartbeat CPU 0 instructions: 10000002 cycles: 2766702 heartbeat IPC: 3.61441 cumulative IPC: 3.61441 (Simulation time: 0 hr 15 min 55 sec) 

Warmup complete CPU 0 instructions: 10000002 cycles: 2766702 (Simulation time: 0 hr 15 min 55 sec) 

Heartbeat CPU 0 instructions: 20000002 cycles: 23080690 heartbeat IPC: 0.492272 cumulative IPC: 0.492272 (Simulation time: 0 hr 32 min 17 sec) 
Heartbeat CPU 0 instructions: 30000001 cycles: 43033461 heartbeat IPC: 0.501183 cumulative IPC: 0.496688 (Simulation time: 0 hr 48 min 35 sec) 
Heartbeat CPU 0 instructions: 40000001 cycles: 63417142 heartbeat IPC: 0.490589 cumulative IPC: 0.494638 (Simulation time: 1 hr 4 min 55 sec) 
Heartbeat CPU 0 instructions: 50000000 cycles: 82975488 heartbeat IPC: 0.511291 cumulative IPC: 0.498698 (Simulation time: 1 hr 21 min 8 sec) 
Heartbeat CPU 0 instructions: 60000000 cycles: 102217739 heartbeat IPC: 0.51969 cumulative IPC: 0.50276 (Simulation time: 2 hr 44 min 14 sec) 
Finished CPU 0 instructions: 50000002 cycles: 99451038 cumulative IPC: 0.50276 (Simulation time: 2 hr 44 min 46 sec) 

ChampSim completed all CPUs

Region of Interest Statistics

CPU 0 cumulative IPC: 0.50276 instructions: 50000002 cycles: 99451038
ITLB TOTAL     ACCESS:    7883729  HIT:    7685918  MISS:     197811  HIT %:    97.4909  MISS %:     2.5091   MPKI: 3.95622
ITLB LOAD TRANSLATION ACCESS:    7883729  HIT:    7685918  MISS:     197811  HIT %:    97.4909  MISS %:     2.5091   MPKI: 3.95622
ITLB PREFETCH  REQUESTED:          0  ISSUED:          0  USEFUL:          0  USELESS:          0
ITLB USEFUL LOAD PREFETCHES:          0 PREFETCH ISSUED TO LOWER LEVEL:          0  ACCURACY: -nan
ITLB TIMELY PREFETCHES:          0 LATE PREFETCHES: 0 DROPPED PREFETCHES: 0
ITLB PREFETCHES SAME FILL-ORIGIN LEVEL: 0 DIFFERENT FILL-ORIGIN LEVEL: 0
ITLB AVERAGE MISS LATENCY: 16.0448 cycles
ITLB RQ	ACCESS:    9691255	FORWARD:          0	MERGED:    1756425	TO_CACHE:    7934830

DTLB TOTAL     ACCESS:   10016351  HIT:    9373232  MISS:     643119  HIT %:    93.5793  MISS %:    6.42069   MPKI: 12.8624
DTLB LOAD TRANSLATION ACCESS:   10016351  HIT:    9373232  MISS:     643119  HIT %:    93.5793  MISS %:    6.42069   MPKI: 12.8624
DTLB PREFETCH  REQUESTED:          0  ISSUED:          0  USEFUL:          0  USELESS:          0
DTLB USEFUL LOAD PREFETCHES:          0 PREFETCH ISSUED TO LOWER LEVEL:          0  ACCURACY: -nan
DTLB TIMELY PREFETCHES:          0 LATE PREFETCHES: 0 DROPPED PREFETCHES: 0
DTLB PREFETCHES SAME FILL-ORIGIN LEVEL: 0 DIFFERENT FILL-ORIGIN LEVEL: 0
DTLB AVERAGE MISS LATENCY: 14.2968 cycles
DTLB RQ	ACCESS:   12374162	FORWARD:          0	MERGED:    2321035	TO_CACHE:   10053127

STLB TOTAL     ACCESS:    1030049  HIT:     913822  MISS:     116227  HIT %:    88.7164  MISS %:    11.2836   MPKI: 2.32454
STLB LOAD TRANSLATION ACCESS:     840929  HIT:     724702  MISS:     116227  HIT %:    86.1787  MISS %:    13.8213   MPKI: 2.32454
STLB TRANSLATION FROM L1D PREFETCHER ACCESS:     189120  HIT:     189120  MISS:          0  HIT %:        100  MISS %:          0   MPKI: 0
STLB PREFETCH  REQUESTED:          0  ISSUED:          0  USEFUL:          0  USELESS:          0
STLB USEFUL LOAD PREFETCHES:          0 PREFETCH ISSUED TO LOWER LEVEL:          0  ACCURACY: -nan
STLB TIMELY PREFETCHES:          0 LATE PREFETCHES: 0 DROPPED PREFETCHES: 0
STLB PREFETCHES SAME FILL-ORIGIN LEVEL: 0 DIFFERENT FILL-ORIGIN LEVEL: 0
STLB AVERAGE MISS LATENCY: 41.1575 cycles
STLB RQ	ACCESS:    1080279	FORWARD:          0	MERGED:      50229	TO_CACHE:    1030050

STLB Hit, L1D data hit: 0
STLB Hit, L2C data hit: 0
STLB Hit, LLC data hit: 0
STLB Hit, LLC data miss: 0
STLB STLB hints to L2: 0
L1D TOTAL     ACCESS:   12468045  HIT:   11741067  MISS:     726978  HIT %:    94.1693  MISS %:    5.83073   MPKI: 14.5396
L1D LOAD      ACCESS:    7227714  HIT:    6690857  MISS:     536857  HIT %:    92.5722  MISS %:    7.42776   MPKI: 10.7371
L1D RFO       ACCESS:    5016177  HIT:    4924370  MISS:      91807  HIT %:    98.1698  MISS %:    1.83022   MPKI: 1.83614
L1D PREFETCH  ACCESS:     224154  HIT:     125840  MISS:      98314  HIT %:      56.14  MISS %:      43.86   MPKI: 1.96628
L1D PREFETCH  REQUESTED:     478960  ISSUED:     478840  USEFUL:      28493  USELESS:      69854
L1D USEFUL LOAD PREFETCHES:      28493 PREFETCH ISSUED TO LOWER LEVEL:     104816  ACCURACY: 27.1838
L1D TIMELY PREFETCHES:      28493 LATE PREFETCHES: 6374 DROPPED PREFETCHES: 0
L1D PREFETCHES SAME FILL-ORIGIN LEVEL: 104816 DIFFERENT FILL-ORIGIN LEVEL: 0
L1D AVERAGE MISS LATENCY: 487838 cycles
L1D RQ	ACCESS:   10641622	FORWARD:          0	MERGED:    3310692	TO_CACHE:    7251917
L1D WQ	ACCESS:    5207903	FORWARD:      79155	MERGED:      85658	TO_CACHE:    5122245
L1D PQ	ACCESS:     239491	FORWARD:          0	MERGED:          0	TO_CACHE:     239349

L1D UNIQUE REGIONS ACCESSED: 0
L1D REGIONS CONFLICTS: 0
L1D Cross Page Prefetch Requests: 0
L1D Same Page Prefetch Requests: 287494
L1D ROI Sum of L1D PQ occupancy: 3193115
L1D PREFETCHES PUSHED FROM L2C: 0
L1I TOTAL     ACCESS:    9267177  HIT:    7968796  MISS:    1298381  HIT %:    85.9895  MISS %:    14.0105   MPKI: 25.9676
L1I LOAD      ACCESS:    9267177  HIT:    7968796  MISS:    1298381  HIT %:    85.9895  MISS %:    14.0105   MPKI: 25.9676
L1I PREFETCH  REQUESTED:          0  ISSUED:          0  USEFUL:          0  USELESS:          0
L1I USEFUL LOAD PREFETCHES:          0 PREFETCH ISSUED TO LOWER LEVEL:          0  ACCURACY: -nan
L1I TIMELY PREFETCHES:          0 LATE PREFETCHES: 0 DROPPED PREFETCHES: 0
L1I PREFETCHES SAME FILL-ORIGIN LEVEL: 0 DIFFERENT FILL-ORIGIN LEVEL: 0
L1I AVERAGE MISS LATENCY: 27.4174 cycles
L1I RQ	ACCESS:   13860097	FORWARD:          0	MERGED:    4168842	TO_CACHE:    9691255

BTB TOTAL     ACCESS:    4469989  HIT:    3684876  MISS:     785113  HIT %:    82.4359  MISS %:    17.5641   MPKI: 15.7023
BTB BRANCH_DIRECT_JUMP	ACCESS:     461138  HIT:     398477  MISS:      62661
BTB BRANCH_INDIRECT	ACCESS:     153420  HIT:     119718  MISS:      33702
BTB BRANCH_CONDITIONAL	ACCESS:    2143625  HIT:    1887592  MISS:     256033
BTB BRANCH_DIRECT_CALL	ACCESS:     670235  HIT:     552214  MISS:     118021
BTB BRANCH_INDIRECT_CALL	ACCESS:     168700  HIT:     156363  MISS:      12337
BTB BRANCH_RETURN	ACCESS:     872871  HIT:     570512  MISS:     302359
BTB BRANCH_OTHER ACCESS:          0  HIT:          0  MISS:          0

L2C TOTAL     ACCESS:    2863683  HIT:    1665581  MISS:    1198102  HIT %:    58.1622  MISS %:    41.8378   MPKI: 23.962
L2C LOAD      ACCESS:    1828847  HIT:    1080120  MISS:     748727  HIT %:    59.0602  MISS %:    40.9398   MPKI: 14.9745
L2C DATA LOAD MPKI: 4.29508
L2C INSTRUCTION LOAD MPKI: 10.6795
L2C RFO       ACCESS:      91679  HIT:      43890  MISS:      47789  HIT %:    47.8736  MISS %:    52.1264   MPKI: 0.95578
L2C PREFETCH  ACCESS:     535144  HIT:     209520  MISS:     325624  HIT %:    39.1521  MISS %:    60.8479   MPKI: 6.51248
L2C DATA PREFETCH MPKI: 6.51248
L2C INSTRUCTION PREFETCH MPKI: 0
L2C WRITEBACK ACCESS:     260700  HIT:     233881  MISS:      26819  HIT %:    89.7127  MISS %:    10.2873   MPKI: 0.53638
L2C LOAD TRANSLATION ACCESS:     147313  HIT:      98170  MISS:      49143  HIT %:    66.6404  MISS %:    33.3596   MPKI: 0.98286
L2C PREFETCH  REQUESTED:     453992  ISSUED:     453992  USEFUL:      53402  USELESS:     272795
L2C USEFUL LOAD PREFETCHES:      53402 PREFETCH ISSUED TO LOWER LEVEL:     331062  ACCURACY: 16.1305
L2C TIMELY PREFETCHES:      53402 LATE PREFETCHES: 5438 DROPPED PREFETCHES: 0
L2C PREFETCHES SAME FILL-ORIGIN LEVEL: 252788 DIFFERENT FILL-ORIGIN LEVEL: 0
L2C AVERAGE MISS LATENCY: 39.8356 cycles
L2C RQ	ACCESS:    2067855	FORWARD:          0	MERGED:          0	TO_CACHE:    2067839
L2C WQ	ACCESS:     260700	FORWARD:         18	MERGED:          0	TO_CACHE:     260700
L2C PQ	ACCESS:     558808	FORWARD:          0	MERGED:       5032	TO_CACHE:     553774

L2C Instructions Evicting Data 269200
L2C Translations Evicting Data 24755
L2C Data Evicting Data 305649
L2C Instructions Evicting Instructions 242688
L2C Translations Evicting Instructions 22305
L2C Data Evicting Instructions 258624
L2C Instructions Evicting Translations 22085
L2C Translations Evicting Translations 2083
L2C Data Evicting Translations 23894
L2C Dense regions hint from L2: 0
PSCL5 TOTAL     ACCESS:     116227  HIT:     116227  MISS:          0  HIT %:        100  MISS %:          0   MPKI: 0
PSCL5 LOAD TRANSLATION ACCESS:     116227  HIT:     116227  MISS:          0  HIT %:        100  MISS %:          0   MPKI: 0
PSCL5 PREFETCH  REQUESTED:          0  ISSUED:          0  USEFUL:          0  USELESS:          0
PSCL5 USEFUL LOAD PREFETCHES:          0 PREFETCH ISSUED TO LOWER LEVEL:          0  ACCURACY: -nan
PSCL5 TIMELY PREFETCHES:          0 LATE PREFETCHES: 0 DROPPED PREFETCHES: 0
PSCL5 PREFETCHES SAME FILL-ORIGIN LEVEL: 0 DIFFERENT FILL-ORIGIN LEVEL: 0

PSCL4 TOTAL     ACCESS:     111995  HIT:     111657  MISS:        338  HIT %:    99.6982  MISS %:   0.301799   MPKI: 0.00676
PSCL4 LOAD TRANSLATION ACCESS:     111995  HIT:     111657  MISS:        338  HIT %:    99.6982  MISS %:   0.301799   MPKI: 0.00676
PSCL4 PREFETCH  REQUESTED:          0  ISSUED:          0  USEFUL:          0  USELESS:          0
PSCL4 USEFUL LOAD PREFETCHES:          0 PREFETCH ISSUED TO LOWER LEVEL:          0  ACCURACY: -nan
PSCL4 TIMELY PREFETCHES:          0 LATE PREFETCHES: 0 DROPPED PREFETCHES: 0
PSCL4 PREFETCHES SAME FILL-ORIGIN LEVEL: 0 DIFFERENT FILL-ORIGIN LEVEL: 0

PSCL3 TOTAL     ACCESS:     115186  HIT:     114217  MISS:        969  HIT %:    99.1588  MISS %:   0.841248   MPKI: 0.01938
PSCL3 LOAD TRANSLATION ACCESS:     115186  HIT:     114217  MISS:        969  HIT %:    99.1588  MISS %:   0.841248   MPKI: 0.01938
PSCL3 PREFETCH  REQUESTED:          0  ISSUED:          0  USEFUL:          0  USELESS:          0
PSCL3 USEFUL LOAD PREFETCHES:          0 PREFETCH ISSUED TO LOWER LEVEL:          0  ACCURACY: -nan
PSCL3 TIMELY PREFETCHES:          0 LATE PREFETCHES: 0 DROPPED PREFETCHES: 0
PSCL3 PREFETCHES SAME FILL-ORIGIN LEVEL: 0 DIFFERENT FILL-ORIGIN LEVEL: 0

PSCL2 TOTAL     ACCESS:     116227  HIT:      86372  MISS:      29855  HIT %:    74.3132  MISS %:    25.6868   MPKI: 0.5971
PSCL2 LOAD TRANSLATION ACCESS:     116227  HIT:      86372  MISS:      29855  HIT %:    74.3132  MISS %:    25.6868   MPKI: 0.5971
PSCL2 PREFETCH  REQUESTED:          0  ISSUED:          0  USEFUL:          0  USELESS:          0
PSCL2 USEFUL LOAD PREFETCHES:          0 PREFETCH ISSUED TO LOWER LEVEL:          0  ACCURACY: -nan
PSCL2 TIMELY PREFETCHES:          0 LATE PREFETCHES: 0 DROPPED PREFETCHES: 0
PSCL2 PREFETCHES SAME FILL-ORIGIN LEVEL: 0 DIFFERENT FILL-ORIGIN LEVEL: 0

LLC TOTAL     ACCESS:    1317706  HIT:    1233640  MISS:      84066  HIT %:    93.6203  MISS %:    6.37972   MPKI: 1.68132
LLC LOAD      ACCESS:     743461  HIT:     718282  MISS:      25179  HIT %:    96.6133  MISS %:    3.38673   MPKI: 0.50358
LLC RFO       ACCESS:      47610  HIT:      38424  MISS:       9186  HIT %:    80.7057  MISS %:    19.2943   MPKI: 0.18372
LLC PREFETCH  ACCESS:     331060  HIT:     283225  MISS:      47835  HIT %:     85.551  MISS %:     14.449   MPKI: 0.9567
LLC WRITEBACK ACCESS:     146432  HIT:     146151  MISS:        281  HIT %:    99.8081  MISS %:   0.191898   MPKI: 0.00562
LLC LOAD TRANSLATION ACCESS:      49143  HIT:      47558  MISS:       1585  HIT %:    96.7747  MISS %:    3.22528   MPKI: 0.0317
LLC PREFETCH  REQUESTED:          0  ISSUED:          0  USEFUL:       3849  USELESS:      41674
LLC USEFUL LOAD PREFETCHES:       3849 PREFETCH ISSUED TO LOWER LEVEL:      47835  ACCURACY: 8.04641
LLC TIMELY PREFETCHES:       3849 LATE PREFETCHES: 0 DROPPED PREFETCHES: 0
LLC PREFETCHES SAME FILL-ORIGIN LEVEL: 0 DIFFERENT FILL-ORIGIN LEVEL: 0
LLC AVERAGE MISS LATENCY: 153.169 cycles
LLC RQ	ACCESS:     840221	FORWARD:          0	MERGED:          0	TO_CACHE:     840214
LLC WQ	ACCESS:     146432	FORWARD:          9	MERGED:          0	TO_CACHE:     146432
LLC PQ	ACCESS:     331062	FORWARD:          0	MERGED:          0	TO_CACHE:     331060

LLC Dense regions hint to LLC: 0

RAW hits: 789868
Loads Generated: 11431487
Loads sent to L1D: 10641622
Stores Generated: 5207898
Stores sent to L1D: 5207903
Major fault: 0 Minor fault: 4938
Allocated PAGES: 4938

stream: 
stream:times selected: 430752
stream:pref_filled: 70753
stream:pref_useful: 19894
stream:pref_late: 3452
stream:misses: 6416
stream:misses_by_poll: 0

CS: 
CS:times selected: 26638
CS:pref_filled: 13157
CS:pref_useful: 9359
CS:pref_late: 2732
CS:misses: 4676
CS:misses_by_poll: 0

CPLX: 
CPLX:times selected: 400974
CPLX:pref_filled: 29246
CPLX:pref_useful: 4075
CPLX:pref_late: 391
CPLX:misses: 33333
CPLX:misses_by_poll: 1

NL_L1: 
NL:times selected: 3044
NL:pref_filled: 1134
NL:pref_useful: 174
NL:pref_late: 25
NL:misses: 371
NL:misses_by_poll: 0

total selections: 861408
total_filled: 98314
total_useful: 28493
total_late: 7020
total_polluted: 1
total_misses_after_warmup: 561059
conflicts: 2435170
Degree Incremented Times: 23
Degree Decremented Times: 122574

L1 IP Table Write Accesses: 4292751
L1 IP Table Read Accesses: 1857581
L1 RST Write Accesses: 362475
L1 RST Read Accesses: 724950
L1 CSPT Write Accesses: 362475
L1 CSPT Read Accesses: 701395
L1 RR Filter Tag Write Accesses: 239611
L1 RR Filter Tag Read Accesses: 14836649
L1 IP Table Tag Write Accesses: 7251916
L1 IP Table Tag Read Accesses: 7251916
L1 RST Tag Write Accesses: 0
L1 RST Tag Read Accesses: 3470209
L1 RR Filter Write Accesses: 0
L1 RR Filter Read Accesses: 536846
test: 114677
L2 IP Table Read Accesses: 796781
L2 IP Table Write Accesses: 1119135
L2 IP Table Tag Read Accesses: 629830
L2 IP Table Tag Write Accesses: 629830

DRAM Statistics
 CHANNEL 0
 RQ ROW_BUFFER_HIT:      16981  ROW_BUFFER_MISS:      66804
 DBUS_CONGESTED:         34
 WQ ROW_BUFFER_HIT:       5777  ROW_BUFFER_MISS:      44198  FULL:          0

 AVG_CONGESTED_CYCLE: 4
 All warmup complete: 2
Channel 0 Bank busy for read cycles: 0
Channel 0 Bank busy for write cycles: 0
Channel 0
Rank 0
0banks busy for read cycles: 85990975
0banks busy for write cycles: 27741
1banks busy for read cycles: 6119307
1banks busy for write cycles: 3648684
2banks busy for read cycles: 1475339
2banks busy for write cycles: 939664
3banks busy for read cycles: 329943
3banks busy for write cycles: 303767
4banks busy for read cycles: 107527
4banks busy for write cycles: 147396
5banks busy for read cycles: 29577
5banks busy for write cycles: 92558
6banks busy for read cycles: 13264
6banks busy for write cycles: 76685
7banks busy for read cycles: 9465
7banks busy for write cycles: 59491
8banks busy for read cycles: 11006
8banks busy for write cycles: 68650

CPU 0 Branch Prediction Accuracy: 93.0432% MPKI: 12.9126 Average ROB Occupancy at Mispredict: 21.5817
Branch types
NOT_BRANCH: 40719314 81.4386%
BRANCH_DIRECT_JUMP: 461138 0.922276%
BRANCH_INDIRECT: 153420 0.30684%
BRANCH_CONDITIONAL: 6954239 13.9085%
BRANCH_DIRECT_CALL: 670235 1.34047%
BRANCH_INDIRECT_CALL: 168700 0.3374%
BRANCH_RETURN: 872871 1.74574%
BRANCH_OTHER: 0 0%

@sumon_overall_L1D     28493      6374     69854     98314    478840    478960
@Sumon_Early_by_class_L1D     16252      6913      3330        21
@Sumon_Late_by_class_L1D      3235      2405       349        21

@Sumon_Early_by_cycle_L1D      6607      2363      4958      1878      1923      3640      1306      1389      2060      1664       597       108
@Sumon_Late_by_cycle_L1D      5948       423         3         0         0         0         0         0         0         0         0         0
@Sumon_Early_stream_L1D      3027      1657      1674      1393      1267      2234       936      1089      1437      1126       340        72
@Sumon_Early_CS_L1D      2777       161      2541        78       262       741       125        79        48        19        79         3
@Sumon_Early_CPLX_L1D       372       265       458       178       150       475       219       210       428       428       121        26
@Sumon_Late_stream_L1D      2988       245         2         0         0         0         0         0         0         0         0         0
@Sumon_Late_CS_L1D      2287       118         0         0         0         0         0         0         0         0         0         0
@Sumon_Late_CPLX_L1D       326        22         1         0         0         0         0         0         0         0         0         0
@sumon_overall_L2C     53402      5438    272795    325624    453992    453992
@Sumon_Early_by_class_L2C       673       288       265         0
@Sumon_Late_by_class_L2C         0         0         0         0

@Sumon_Early_by_cycle_L2C      8574      7210      7004      4632      3195      8159      4023      2725      1453      1739      1091      3597
@Sumon_Late_by_cycle_L2C      4008      1429         1         0         0         0         0         0         0         0         0         0
@Sumon_Early_stream_L2C         0         0         0         0         0         0         0         0         1        13        62       597
@Sumon_Early_CS_L2C         0         0         0         0         0         0         0         0         0         4        29       255
@Sumon_Early_CPLX_L2C         0         0         0         0         0         0         0         0         0         5        22       238
@Sumon_Late_stream_L2C         0         0         0         0         0         0         0         0         0         0         0         0
@Sumon_Late_CS_L2C         0         0         0         0         0         0         0         0         0         0         0         0
@Sumon_Late_CPLX_L2C         0         0         0         0         0         0         0         0         0         0         0         0
DRAM PAGES: 1048576
Allocated PAGES: 4938
