
*** ChampSim Multicore Out-of-Order Simulator ***

Warmup Instructions: 10000000
Simulation Instructions: 50000000
Number of CPUs: 1
LLC sets: 2048
LLC ways: 16
Off-chip DRAM Size: 4096 MB Channels: 1 Width: 64-bit Data Rate: 6400 MT/s
CPU 0 runs traces/clientserver/server_035.champsimtrace.xz
.xz
CPU 0 Bimodal branch predictor
BTB has LRU replacement policy
ITLB has LRU replacement policy
DTLB has LRU replacement policy
STLB has LRU replacement policy
L1I has LRU replacement policy
IP Table Entries: 256
L1D has LRU replacement policy
IP_Table L2 entries: 256
Initialize DRRIP state for L2C
LLC has LRU replacement policy
Heartbeat CPU 0 instructions: 10000001 cycles: 2770506 heartbeat IPC: 3.60945 cumulative IPC: 3.60945 (Simulation time: 0 hr 17 min 21 sec) 

Warmup complete CPU 0 instructions: 10000001 cycles: 2770506 (Simulation time: 0 hr 17 min 21 sec) 

Heartbeat CPU 0 instructions: 20000000 cycles: 24365219 heartbeat IPC: 0.463076 cumulative IPC: 0.463076 (Simulation time: 0 hr 34 min 24 sec) 
Heartbeat CPU 0 instructions: 30000000 cycles: 45319285 heartbeat IPC: 0.477234 cumulative IPC: 0.470049 (Simulation time: 0 hr 51 min 4 sec) 
Heartbeat CPU 0 instructions: 40000000 cycles: 66885330 heartbeat IPC: 0.463692 cumulative IPC: 0.46791 (Simulation time: 1 hr 8 min 6 sec) 
Heartbeat CPU 0 instructions: 50000000 cycles: 87691045 heartbeat IPC: 0.480637 cumulative IPC: 0.471029 (Simulation time: 1 hr 25 min 11 sec) 
Heartbeat CPU 0 instructions: 60000001 cycles: 109030829 heartbeat IPC: 0.468608 cumulative IPC: 0.470543 (Simulation time: 3 hr 27 min 15 sec) 
Finished CPU 0 instructions: 50000000 cycles: 106260323 cumulative IPC: 0.470543 (Simulation time: 3 hr 27 min 15 sec) 

ChampSim completed all CPUs

Region of Interest Statistics

CPU 0 cumulative IPC: 0.470543 instructions: 50000000 cycles: 106260323
ITLB TOTAL     ACCESS:    8917125  HIT:    8413461  MISS:     503664  HIT %:    94.3517  MISS %:    5.64828   MPKI: 10.0733
ITLB LOAD TRANSLATION ACCESS:    8917125  HIT:    8413461  MISS:     503664  HIT %:    94.3517  MISS %:    5.64828   MPKI: 10.0733
ITLB PREFETCH  REQUESTED:          0  ISSUED:          0  USEFUL:          0  USELESS:          0
ITLB USEFUL LOAD PREFETCHES:          0 PREFETCH ISSUED TO LOWER LEVEL:          0  ACCURACY: -nan
ITLB TIMELY PREFETCHES:          0 LATE PREFETCHES: 0 DROPPED PREFETCHES: 0
ITLB PREFETCHES SAME FILL-ORIGIN LEVEL: 0 DIFFERENT FILL-ORIGIN LEVEL: 0
ITLB AVERAGE MISS LATENCY: 9.13131 cycles
ITLB RQ	ACCESS:   10580903	FORWARD:          0	MERGED:    1539947	TO_CACHE:    9040956

DTLB TOTAL     ACCESS:   10600561  HIT:   10150614  MISS:     449947  HIT %:    95.7554  MISS %:    4.24456   MPKI: 8.99894
DTLB LOAD TRANSLATION ACCESS:   10600561  HIT:   10150614  MISS:     449947  HIT %:    95.7554  MISS %:    4.24456   MPKI: 8.99894
DTLB PREFETCH  REQUESTED:          0  ISSUED:          0  USEFUL:          0  USELESS:          0
DTLB USEFUL LOAD PREFETCHES:          0 PREFETCH ISSUED TO LOWER LEVEL:          0  ACCURACY: -nan
DTLB TIMELY PREFETCHES:          0 LATE PREFETCHES: 0 DROPPED PREFETCHES: 0
DTLB PREFETCHES SAME FILL-ORIGIN LEVEL: 0 DIFFERENT FILL-ORIGIN LEVEL: 0
DTLB AVERAGE MISS LATENCY: 11.1458 cycles
DTLB RQ	ACCESS:   14200602	FORWARD:          0	MERGED:    3588283	TO_CACHE:   10612319

STLB TOTAL     ACCESS:    1203582  HIT:    1194637  MISS:       8945  HIT %:    99.2568  MISS %:   0.743198   MPKI: 0.1789
STLB LOAD TRANSLATION ACCESS:     953611  HIT:     944666  MISS:       8945  HIT %:     99.062  MISS %:   0.938014   MPKI: 0.1789
STLB TRANSLATION FROM L1D PREFETCHER ACCESS:     249971  HIT:     249971  MISS:          0  HIT %:        100  MISS %:          0   MPKI: 0
STLB PREFETCH  REQUESTED:          0  ISSUED:          0  USEFUL:          0  USELESS:          0
STLB USEFUL LOAD PREFETCHES:          0 PREFETCH ISSUED TO LOWER LEVEL:          0  ACCURACY: -nan
STLB TIMELY PREFETCHES:          0 LATE PREFETCHES: 0 DROPPED PREFETCHES: 0
STLB PREFETCHES SAME FILL-ORIGIN LEVEL: 0 DIFFERENT FILL-ORIGIN LEVEL: 0
STLB AVERAGE MISS LATENCY: 112.859 cycles
STLB RQ	ACCESS:    1323128	FORWARD:          0	MERGED:     119546	TO_CACHE:    1203582

STLB Hit, L1D data hit: 0
STLB Hit, L2C data hit: 0
STLB Hit, LLC data hit: 0
STLB Hit, LLC data miss: 0
STLB STLB hints to L2: 0
L1D TOTAL     ACCESS:   14408507  HIT:   13469666  MISS:     938841  HIT %:    93.4841  MISS %:    6.51588   MPKI: 18.7768
L1D LOAD      ACCESS:    7747625  HIT:    7112983  MISS:     634642  HIT %:    91.8086  MISS %:    8.19144   MPKI: 12.6928
L1D RFO       ACCESS:    6306977  HIT:    6190765  MISS:     116212  HIT %:    98.1574  MISS %:    1.84259   MPKI: 2.32424
L1D PREFETCH  ACCESS:     353905  HIT:     165918  MISS:     187987  HIT %:    46.8821  MISS %:    53.1179   MPKI: 3.75974
L1D PREFETCH  REQUESTED:     740007  ISSUED:     739500  USEFUL:      25798  USELESS:     162191
L1D USEFUL LOAD PREFETCHES:      25798 PREFETCH ISSUED TO LOWER LEVEL:     190646  ACCURACY: 13.5319
L1D TIMELY PREFETCHES:      25798 LATE PREFETCHES: 2237 DROPPED PREFETCHES: 0
L1D PREFETCHES SAME FILL-ORIGIN LEVEL: 190646 DIFFERENT FILL-ORIGIN LEVEL: 0
L1D AVERAGE MISS LATENCY: 189368 cycles
L1D RQ	ACCESS:   11108528	FORWARD:          0	MERGED:    3181243	TO_CACHE:    7777569
L1D WQ	ACCESS:    6513311	FORWARD:     150182	MERGED:      90278	TO_CACHE:    6423033
L1D PQ	ACCESS:     369983	FORWARD:          0	MERGED:          0	TO_CACHE:     369517

L1D UNIQUE REGIONS ACCESSED: 0
L1D REGIONS CONFLICTS: 0
L1D Cross Page Prefetch Requests: 0
L1D Same Page Prefetch Requests: 427023
L1D ROI Sum of L1D PQ occupancy: 6421908
L1D PREFETCHES PUSHED FROM L2C: 0
L1I TOTAL     ACCESS:    9851138  HIT:    6511631  MISS:    3339507  HIT %:    66.1003  MISS %:    33.8997   MPKI: 66.7901
L1I LOAD      ACCESS:    9851138  HIT:    6511631  MISS:    3339507  HIT %:    66.1003  MISS %:    33.8997   MPKI: 66.7901
L1I PREFETCH  REQUESTED:          0  ISSUED:          0  USEFUL:          0  USELESS:          0
L1I USEFUL LOAD PREFETCHES:          0 PREFETCH ISSUED TO LOWER LEVEL:          0  ACCURACY: -nan
L1I TIMELY PREFETCHES:          0 LATE PREFETCHES: 0 DROPPED PREFETCHES: 0
L1I PREFETCHES SAME FILL-ORIGIN LEVEL: 0 DIFFERENT FILL-ORIGIN LEVEL: 0
L1I AVERAGE MISS LATENCY: 14.5488 cycles
L1I RQ	ACCESS:   14698119	FORWARD:          0	MERGED:    4117216	TO_CACHE:   10580903

BTB TOTAL     ACCESS:    6340916  HIT:    5350576  MISS:     990340  HIT %:    84.3818  MISS %:    15.6182   MPKI: 19.8068
BTB BRANCH_DIRECT_JUMP	ACCESS:     773568  HIT:     696055  MISS:      77513
BTB BRANCH_INDIRECT	ACCESS:     108366  HIT:      73637  MISS:      34729
BTB BRANCH_CONDITIONAL	ACCESS:    2912413  HIT:    2697483  MISS:     214930
BTB BRANCH_DIRECT_CALL	ACCESS:    1062756  HIT:     948426  MISS:     114330
BTB BRANCH_INDIRECT_CALL	ACCESS:     210540  HIT:     143969  MISS:      66571
BTB BRANCH_RETURN	ACCESS:    1273273  HIT:     791006  MISS:     482267
BTB BRANCH_OTHER ACCESS:          0  HIT:          0  MISS:          0

L2C TOTAL     ACCESS:    5102648  HIT:    4799267  MISS:     303381  HIT %:    94.0544  MISS %:    5.94556   MPKI: 6.06762
L2C LOAD      ACCESS:    3971853  HIT:    3850678  MISS:     121175  HIT %:    96.9492  MISS %:    3.05084   MPKI: 2.4235
L2C DATA LOAD MPKI: 2.22274
L2C INSTRUCTION LOAD MPKI: 0.20076
L2C RFO       ACCESS:     115790  HIT:      94784  MISS:      21006  HIT %:    81.8585  MISS %:    18.1415   MPKI: 0.42012
L2C PREFETCH  ACCESS:     727025  HIT:     571852  MISS:     155173  HIT %:    78.6564  MISS %:    21.3436   MPKI: 3.10346
L2C DATA PREFETCH MPKI: 3.10346
L2C INSTRUCTION PREFETCH MPKI: 0
L2C WRITEBACK ACCESS:     278378  HIT:     276143  MISS:       2235  HIT %:    99.1971  MISS %:   0.802865   MPKI: 0.0447
L2C LOAD TRANSLATION ACCESS:       9602  HIT:       5810  MISS:       3792  HIT %:    60.5082  MISS %:    39.4918   MPKI: 0.07584
L2C PREFETCH  REQUESTED:     553590  ISSUED:     553590  USEFUL:      50001  USELESS:     105297
L2C USEFUL LOAD PREFETCHES:      50001 PREFETCH ISSUED TO LOWER LEVEL:     159529  ACCURACY: 31.3429
L2C TIMELY PREFETCHES:      50001 LATE PREFETCHES: 4355 DROPPED PREFETCHES: 0
L2C PREFETCHES SAME FILL-ORIGIN LEVEL: 111185 DIFFERENT FILL-ORIGIN LEVEL: 0
L2C AVERAGE MISS LATENCY: 166.858 cycles
L2C RQ	ACCESS:    4097306	FORWARD:          0	MERGED:          0	TO_CACHE:    4097246
L2C WQ	ACCESS:     278379	FORWARD:         61	MERGED:          0	TO_CACHE:     278379
L2C PQ	ACCESS:     744236	FORWARD:          0	MERGED:       4746	TO_CACHE:     739489

L2C Instructions Evicting Data 8583
L2C Translations Evicting Data 3624
L2C Data Evicting Data 275292
L2C Instructions Evicting Instructions 1378
L2C Translations Evicting Instructions 122
L2C Data Evicting Instructions 8382
L2C Instructions Evicting Translations 77
L2C Translations Evicting Translations 46
L2C Data Evicting Translations 3642
L2C Dense regions hint from L2: 0
PSCL5 TOTAL     ACCESS:       8945  HIT:       8945  MISS:          0  HIT %:        100  MISS %:          0   MPKI: 0
PSCL5 LOAD TRANSLATION ACCESS:       8945  HIT:       8945  MISS:          0  HIT %:        100  MISS %:          0   MPKI: 0
PSCL5 PREFETCH  REQUESTED:          0  ISSUED:          0  USEFUL:          0  USELESS:          0
PSCL5 USEFUL LOAD PREFETCHES:          0 PREFETCH ISSUED TO LOWER LEVEL:          0  ACCURACY: -nan
PSCL5 TIMELY PREFETCHES:          0 LATE PREFETCHES: 0 DROPPED PREFETCHES: 0
PSCL5 PREFETCHES SAME FILL-ORIGIN LEVEL: 0 DIFFERENT FILL-ORIGIN LEVEL: 0

PSCL4 TOTAL     ACCESS:       8529  HIT:       8493  MISS:         36  HIT %:    99.5779  MISS %:   0.422089   MPKI: 0.00072
PSCL4 LOAD TRANSLATION ACCESS:       8529  HIT:       8493  MISS:         36  HIT %:    99.5779  MISS %:   0.422089   MPKI: 0.00072
PSCL4 PREFETCH  REQUESTED:          0  ISSUED:          0  USEFUL:          0  USELESS:          0
PSCL4 USEFUL LOAD PREFETCHES:          0 PREFETCH ISSUED TO LOWER LEVEL:          0  ACCURACY: -nan
PSCL4 TIMELY PREFETCHES:          0 LATE PREFETCHES: 0 DROPPED PREFETCHES: 0
PSCL4 PREFETCHES SAME FILL-ORIGIN LEVEL: 0 DIFFERENT FILL-ORIGIN LEVEL: 0

PSCL3 TOTAL     ACCESS:       8697  HIT:       8661  MISS:         36  HIT %:    99.5861  MISS %:   0.413936   MPKI: 0.00072
PSCL3 LOAD TRANSLATION ACCESS:       8697  HIT:       8661  MISS:         36  HIT %:    99.5861  MISS %:   0.413936   MPKI: 0.00072
PSCL3 PREFETCH  REQUESTED:          0  ISSUED:          0  USEFUL:          0  USELESS:          0
PSCL3 USEFUL LOAD PREFETCHES:          0 PREFETCH ISSUED TO LOWER LEVEL:          0  ACCURACY: -nan
PSCL3 TIMELY PREFETCHES:          0 LATE PREFETCHES: 0 DROPPED PREFETCHES: 0
PSCL3 PREFETCHES SAME FILL-ORIGIN LEVEL: 0 DIFFERENT FILL-ORIGIN LEVEL: 0

PSCL2 TOTAL     ACCESS:       8945  HIT:       8355  MISS:        590  HIT %:    93.4041  MISS %:    6.59586   MPKI: 0.0118
PSCL2 LOAD TRANSLATION ACCESS:       8945  HIT:       8355  MISS:        590  HIT %:    93.4041  MISS %:    6.59586   MPKI: 0.0118
PSCL2 PREFETCH  REQUESTED:          0  ISSUED:          0  USEFUL:          0  USELESS:          0
PSCL2 USEFUL LOAD PREFETCHES:          0 PREFETCH ISSUED TO LOWER LEVEL:          0  ACCURACY: -nan
PSCL2 TIMELY PREFETCHES:          0 LATE PREFETCHES: 0 DROPPED PREFETCHES: 0
PSCL2 PREFETCHES SAME FILL-ORIGIN LEVEL: 0 DIFFERENT FILL-ORIGIN LEVEL: 0

LLC TOTAL     ACCESS:     400664  HIT:     174119  MISS:     226545  HIT %:    43.4576  MISS %:    56.5424   MPKI: 4.5309
LLC LOAD      ACCESS:     117206  HIT:      17580  MISS:      99626  HIT %:    14.9992  MISS %:    85.0008   MPKI: 1.99252
LLC RFO       ACCESS:      20618  HIT:       7245  MISS:      13373  HIT %:    35.1392  MISS %:    64.8608   MPKI: 0.26746
LLC PREFETCH  ACCESS:     159529  HIT:      48733  MISS:     110796  HIT %:    30.5481  MISS %:    69.4519   MPKI: 2.21592
LLC WRITEBACK ACCESS:      99519  HIT:      98743  MISS:        776  HIT %:    99.2202  MISS %:   0.779751   MPKI: 0.01552
LLC LOAD TRANSLATION ACCESS:       3792  HIT:       1818  MISS:       1974  HIT %:     47.943  MISS %:     52.057   MPKI: 0.03948
LLC PREFETCH  REQUESTED:          0  ISSUED:          0  USEFUL:       3842  USELESS:     104698
LLC USEFUL LOAD PREFETCHES:       3842 PREFETCH ISSUED TO LOWER LEVEL:     110796  ACCURACY: 3.46763
LLC TIMELY PREFETCHES:       3842 LATE PREFETCHES: 0 DROPPED PREFETCHES: 0
LLC PREFETCHES SAME FILL-ORIGIN LEVEL: 0 DIFFERENT FILL-ORIGIN LEVEL: 0
LLC AVERAGE MISS LATENCY: 184.197 cycles
LLC RQ	ACCESS:     141618	FORWARD:          0	MERGED:          0	TO_CACHE:     141616
LLC WQ	ACCESS:      99520	FORWARD:          2	MERGED:          0	TO_CACHE:      99520
LLC PQ	ACCESS:     159529	FORWARD:          0	MERGED:          0	TO_CACHE:     159529

LLC Dense regions hint to LLC: 0

RAW hits: 972361
Loads Generated: 12080891
Loads sent to L1D: 11108528
Stores Generated: 6513315
Stores sent to L1D: 6513311
Major fault: 0 Minor fault: 5429
Allocated PAGES: 5429

stream: 
stream:times selected: 451555
stream:pref_filled: 121912
stream:pref_useful: 15079
stream:pref_late: 684
stream:misses: 11895
stream:misses_by_poll: 0

CS: 
CS:times selected: 20317
CS:pref_filled: 8579
CS:pref_useful: 3685
CS:pref_late: 841
CS:misses: 497
CS:misses_by_poll: 34

CPLX: 
CPLX:times selected: 439135
CPLX:pref_filled: 82277
CPLX:pref_useful: 8917
CPLX:pref_late: 613
CPLX:misses: 54004
CPLX:misses_by_poll: 21

NL_L1: 
NL:times selected: 2270
NL:pref_filled: 1626
NL:pref_useful: 12
NL:pref_late: 2
NL:misses: 270
NL:misses_by_poll: 0

total selections: 913277
total_filled: 187987
total_useful: 25798
total_late: 2676
total_polluted: 55
total_misses_after_warmup: 664586
conflicts: 3231690
Degree Incremented Times: 0
Degree Decremented Times: 315926

L1 IP Table Write Accesses: 4318646
L1 IP Table Read Accesses: 1086956
L1 RST Write Accesses: 394517
L1 RST Read Accesses: 789034
L1 CSPT Write Accesses: 394517
L1 CSPT Read Accesses: 779497
L1 RR Filter Tag Write Accesses: 370490
L1 RR Filter Tag Read Accesses: 17595140
L1 IP Table Tag Write Accesses: 7777569
L1 IP Table Tag Read Accesses: 7777569
L1 RST Tag Write Accesses: 0
L1 RST Tag Read Accesses: 3974503
L1 RR Filter Write Accesses: 0
L1 RR Filter Read Accesses: 613346
test: 204877
L2 IP Table Read Accesses: 1076167
L2 IP Table Write Accesses: 1465218
L2 IP Table Tag Read Accesses: 817226
L2 IP Table Tag Write Accesses: 817226

DRAM Statistics
 CHANNEL 0
 RQ ROW_BUFFER_HIT:      56551  ROW_BUFFER_MISS:     169215
 DBUS_CONGESTED:        201
 WQ ROW_BUFFER_HIT:      18858  ROW_BUFFER_MISS:      66060  FULL:          0

 AVG_CONGESTED_CYCLE: 4
 All warmup complete: 2
Channel 0 Bank busy for read cycles: 0
Channel 0 Bank busy for write cycles: 0
Channel 0
Rank 0
0banks busy for read cycles: 85245484
0banks busy for write cycles: 21997
1banks busy for read cycles: 6362286
1banks busy for write cycles: 2954112
2banks busy for read cycles: 4426099
2banks busy for write cycles: 1409647
3banks busy for read cycles: 1568574
3banks busy for write cycles: 831701
4banks busy for read cycles: 722121
4banks busy for write cycles: 529549
5banks busy for read cycles: 399539
5banks busy for write cycles: 335250
6banks busy for read cycles: 218698
6banks busy for write cycles: 264396
7banks busy for read cycles: 187146
7banks busy for write cycles: 312382
8banks busy for read cycles: 123927
8banks busy for write cycles: 347416

CPU 0 Branch Prediction Accuracy: 93.023% MPKI: 13.5823 Average ROB Occupancy at Mispredict: 21.7014
Branch types
NOT_BRANCH: 40266107 80.5322%
BRANCH_DIRECT_JUMP: 773568 1.54714%
BRANCH_INDIRECT: 108366 0.216732%
BRANCH_CONDITIONAL: 6305104 12.6102%
BRANCH_DIRECT_CALL: 1062756 2.12551%
BRANCH_INDIRECT_CALL: 210540 0.42108%
BRANCH_RETURN: 1273273 2.54655%
BRANCH_OTHER: 0 0%

@sumon_overall_L1D     25798      2237    162191    187987    739500    740007
@Sumon_Early_by_class_L1D     12762      3578      7825         0
@Sumon_Late_by_class_L1D       492       825       396         0

@Sumon_Early_by_cycle_L1D      6460      4912      4066      2036      2690      2291       919       679       186      1036       421       102
@Sumon_Late_by_cycle_L1D      1832       316        40        40         8         1         0         0         0         0         0         0
@Sumon_Early_stream_L1D      3634      3538      3110       515        63       139       492        88        73       741       310        59
@Sumon_Early_CS_L1D       773       464       411       596       485       681        88        54        14        12         0         0
@Sumon_Early_CPLX_L1D      2014       489       238       184      2141      1459       232       537        99       282       110        40
@Sumon_Late_stream_L1D       374        48        29        35         5         1         0         0         0         0         0         0
@Sumon_Late_CS_L1D       553       259         6         4         3         0         0         0         0         0         0         0
@Sumon_Late_CPLX_L1D       381         9         5         1         0         0         0         0         0         0         0         0
@sumon_overall_L2C     50001      4355    105297    155173    553590    553590
@Sumon_Early_by_class_L2C      1093        26      1061         0
@Sumon_Late_by_class_L2C         0         0         0         0

@Sumon_Early_by_cycle_L2C      5966      4914      4516      2934      2314      6020      1826       343      1459      5343     10433      3933
@Sumon_Late_by_cycle_L2C      1665      2626        64         0         0         0         0         0         0         0         0         0
@Sumon_Early_stream_L2C         0         0         0         0         0         0         0         0         0         6       679       408
@Sumon_Early_CS_L2C         0         0         0         0         0         0         0         0         0         0        17         9
@Sumon_Early_CPLX_L2C         0         0         0         0         0         0         0         0         0        25       210       826
@Sumon_Late_stream_L2C         0         0         0         0         0         0         0         0         0         0         0         0
@Sumon_Late_CS_L2C         0         0         0         0         0         0         0         0         0         0         0         0
@Sumon_Late_CPLX_L2C         0         0         0         0         0         0         0         0         0         0         0         0
DRAM PAGES: 1048576
Allocated PAGES: 5429
