
*** ChampSim Multicore Out-of-Order Simulator ***

Warmup Instructions: 10000000
Simulation Instructions: 50000000
Number of CPUs: 1
LLC sets: 2048
LLC ways: 16
Off-chip DRAM Size: 4096 MB Channels: 1 Width: 64-bit Data Rate: 6400 MT/s
CPU 0 runs traces/clientserver/server_022.champsimtrace.xz
.xz
CPU 0 Bimodal branch predictor
BTB has LRU replacement policy
ITLB has LRU replacement policy
DTLB has LRU replacement policy
STLB has LRU replacement policy
L1I has LRU replacement policy
IP Table Entries: 256
L1D has LRU replacement policy
IP_Table L2 entries: 256
Initialize DRRIP state for L2C
LLC has LRU replacement policy
Heartbeat CPU 0 instructions: 10000001 cycles: 3151910 heartbeat IPC: 3.17268 cumulative IPC: 3.17268 (Simulation time: 0 hr 19 min 11 sec) 

Warmup complete CPU 0 instructions: 10000001 cycles: 3151910 (Simulation time: 0 hr 19 min 11 sec) 

Heartbeat CPU 0 instructions: 20000001 cycles: 26481993 heartbeat IPC: 0.428631 cumulative IPC: 0.428631 (Simulation time: 0 hr 44 min 9 sec) 
Heartbeat CPU 0 instructions: 30000002 cycles: 49772269 heartbeat IPC: 0.429364 cumulative IPC: 0.428997 (Simulation time: 1 hr 9 min 6 sec) 
Heartbeat CPU 0 instructions: 40000002 cycles: 72805476 heartbeat IPC: 0.434156 cumulative IPC: 0.430703 (Simulation time: 3 hr 17 min 7 sec) 
Heartbeat CPU 0 instructions: 50000002 cycles: 96128107 heartbeat IPC: 0.428768 cumulative IPC: 0.430218 (Simulation time: 3 hr 36 min 35 sec) 
Heartbeat CPU 0 instructions: 60000002 cycles: 119375905 heartbeat IPC: 0.430148 cumulative IPC: 0.430204 (Simulation time: 3 hr 51 min 7 sec) 
Finished CPU 0 instructions: 50000001 cycles: 116223995 cumulative IPC: 0.430204 (Simulation time: 3 hr 51 min 7 sec) 

ChampSim completed all CPUs

Region of Interest Statistics

CPU 0 cumulative IPC: 0.430204 instructions: 50000001 cycles: 116223995
ITLB TOTAL     ACCESS:    8960580  HIT:    8576263  MISS:     384317  HIT %:     95.711  MISS %:    4.28897   MPKI: 7.68634
ITLB LOAD TRANSLATION ACCESS:    8960580  HIT:    8576263  MISS:     384317  HIT %:     95.711  MISS %:    4.28897   MPKI: 7.68634
ITLB PREFETCH  REQUESTED:          0  ISSUED:          0  USEFUL:          0  USELESS:          0
ITLB USEFUL LOAD PREFETCHES:          0 PREFETCH ISSUED TO LOWER LEVEL:          0  ACCURACY: -nan
ITLB TIMELY PREFETCHES:          0 LATE PREFETCHES: 0 DROPPED PREFETCHES: 0
ITLB PREFETCHES SAME FILL-ORIGIN LEVEL: 0 DIFFERENT FILL-ORIGIN LEVEL: 0
ITLB AVERAGE MISS LATENCY: 9.30078 cycles
ITLB RQ	ACCESS:   10567386	FORWARD:          0	MERGED:    1483758	TO_CACHE:    9083628

DTLB TOTAL     ACCESS:   11738304  HIT:   11331581  MISS:     406723  HIT %:    96.5351  MISS %:    3.46492   MPKI: 8.13446
DTLB LOAD TRANSLATION ACCESS:   11738304  HIT:   11331581  MISS:     406723  HIT %:    96.5351  MISS %:    3.46492   MPKI: 8.13446
DTLB PREFETCH  REQUESTED:          0  ISSUED:          0  USEFUL:          0  USELESS:          0
DTLB USEFUL LOAD PREFETCHES:          0 PREFETCH ISSUED TO LOWER LEVEL:          0  ACCURACY: -nan
DTLB TIMELY PREFETCHES:          0 LATE PREFETCHES: 0 DROPPED PREFETCHES: 0
DTLB PREFETCHES SAME FILL-ORIGIN LEVEL: 0 DIFFERENT FILL-ORIGIN LEVEL: 0
DTLB AVERAGE MISS LATENCY: 17.3647 cycles
DTLB RQ	ACCESS:   16827404	FORWARD:          0	MERGED:    5016345	TO_CACHE:   11811059

STLB TOTAL     ACCESS:    1464913  HIT:    1445223  MISS:      19690  HIT %:    98.6559  MISS %:    1.34411   MPKI: 0.3938
STLB LOAD TRANSLATION ACCESS:     791040  HIT:     771350  MISS:      19690  HIT %:    97.5109  MISS %:    2.48913   MPKI: 0.3938
STLB TRANSLATION FROM L1D PREFETCHER ACCESS:     673873  HIT:     673873  MISS:          0  HIT %:        100  MISS %:          0   MPKI: 0
STLB PREFETCH  REQUESTED:          0  ISSUED:          0  USEFUL:          0  USELESS:          0
STLB USEFUL LOAD PREFETCHES:          0 PREFETCH ISSUED TO LOWER LEVEL:          0  ACCURACY: -nan
STLB TIMELY PREFETCHES:          0 LATE PREFETCHES: 0 DROPPED PREFETCHES: 0
STLB PREFETCHES SAME FILL-ORIGIN LEVEL: 0 DIFFERENT FILL-ORIGIN LEVEL: 0
STLB AVERAGE MISS LATENCY: 178.292 cycles
STLB RQ	ACCESS:    1561359	FORWARD:          0	MERGED:      96446	TO_CACHE:    1464913

STLB Hit, L1D data hit: 0
STLB Hit, L2C data hit: 0
STLB Hit, LLC data hit: 0
STLB Hit, LLC data miss: 0
STLB STLB hints to L2: 0
L1D TOTAL     ACCESS:   14806584  HIT:   12890402  MISS:    1916182  HIT %:    87.0586  MISS %:    12.9414   MPKI: 38.3236
L1D LOAD      ACCESS:    7992042  HIT:    7434365  MISS:     557677  HIT %:    93.0221  MISS %:     6.9779   MPKI: 11.1535
L1D RFO       ACCESS:    6113280  HIT:    5127256  MISS:     986024  HIT %:    83.8708  MISS %:    16.1292   MPKI: 19.7205
L1D PREFETCH  ACCESS:     701262  HIT:     328781  MISS:     372481  HIT %:    46.8842  MISS %:    53.1158   MPKI: 7.44962
L1D PREFETCH  REQUESTED:    1542499  ISSUED:    1540678  USEFUL:     275929  USELESS:      96548
L1D USEFUL LOAD PREFETCHES:     275929 PREFETCH ISSUED TO LOWER LEVEL:     427950  ACCURACY: 64.4769
L1D TIMELY PREFETCHES:     275929 LATE PREFETCHES: 55441 DROPPED PREFETCHES: 0
L1D PREFETCHES SAME FILL-ORIGIN LEVEL: 427950 DIFFERENT FILL-ORIGIN LEVEL: 0
L1D AVERAGE MISS LATENCY: 1.76621e+06 cycles
L1D RQ	ACCESS:   11540670	FORWARD:          0	MERGED:    3374466	TO_CACHE:    8034332
L1D WQ	ACCESS:    8859606	FORWARD:     131912	MERGED:      66534	TO_CACHE:    8793072
L1D PQ	ACCESS:     770359	FORWARD:          0	MERGED:          0	TO_CACHE:     770319

L1D UNIQUE REGIONS ACCESSED: 0
L1D REGIONS CONFLICTS: 0
L1D Cross Page Prefetch Requests: 0
L1D Same Page Prefetch Requests: 925950
L1D ROI Sum of L1D PQ occupancy: 12060044
L1D PREFETCHES PUSHED FROM L2C: 0
L1I TOTAL     ACCESS:    9834098  HIT:    7383382  MISS:    2450716  HIT %:    75.0794  MISS %:    24.9206   MPKI: 49.0143
L1I LOAD      ACCESS:    9834098  HIT:    7383382  MISS:    2450716  HIT %:    75.0794  MISS %:    24.9206   MPKI: 49.0143
L1I PREFETCH  REQUESTED:          0  ISSUED:          0  USEFUL:          0  USELESS:          0
L1I USEFUL LOAD PREFETCHES:          0 PREFETCH ISSUED TO LOWER LEVEL:          0  ACCURACY: -nan
L1I TIMELY PREFETCHES:          0 LATE PREFETCHES: 0 DROPPED PREFETCHES: 0
L1I PREFETCHES SAME FILL-ORIGIN LEVEL: 0 DIFFERENT FILL-ORIGIN LEVEL: 0
L1I AVERAGE MISS LATENCY: 16.3241 cycles
L1I RQ	ACCESS:   14514868	FORWARD:          0	MERGED:    3947482	TO_CACHE:   10567386

BTB TOTAL     ACCESS:    5312390  HIT:    5051460  MISS:     260930  HIT %:    95.0883  MISS %:    4.91173   MPKI: 5.2186
BTB BRANCH_DIRECT_JUMP	ACCESS:     445390  HIT:     443225  MISS:       2165
BTB BRANCH_INDIRECT	ACCESS:      48845  HIT:      48732  MISS:        113
BTB BRANCH_CONDITIONAL	ACCESS:    2983725  HIT:    2977217  MISS:       6508
BTB BRANCH_DIRECT_CALL	ACCESS:     758108  HIT:     753662  MISS:       4446
BTB BRANCH_INDIRECT_CALL	ACCESS:     159112  HIT:     129310  MISS:      29802
BTB BRANCH_RETURN	ACCESS:     917210  HIT:     699314  MISS:     217896
BTB BRANCH_OTHER ACCESS:          0  HIT:          0  MISS:          0

L2C TOTAL     ACCESS:    5976688  HIT:    4152077  MISS:    1824611  HIT %:    69.4712  MISS %:    30.5288   MPKI: 36.4922
L2C LOAD      ACCESS:    2952929  HIT:    2604793  MISS:     348136  HIT %:    88.2105  MISS %:    11.7895   MPKI: 6.96272
L2C DATA LOAD MPKI: 5.22436
L2C INSTRUCTION LOAD MPKI: 1.73836
L2C RFO       ACCESS:     986000  HIT:      35763  MISS:     950237  HIT %:    3.62708  MISS %:    96.3729   MPKI: 19.0047
L2C PREFETCH  ACCESS:     850058  HIT:     351652  MISS:     498406  HIT %:     41.368  MISS %:     58.632   MPKI: 9.96812
L2C DATA PREFETCH MPKI: 9.96812
L2C INSTRUCTION PREFETCH MPKI: 0
L2C WRITEBACK ACCESS:    1165858  HIT:    1147403  MISS:      18455  HIT %:     98.417  MISS %:    1.58295   MPKI: 0.3691
L2C LOAD TRANSLATION ACCESS:      21843  HIT:      12466  MISS:       9377  HIT %:    57.0709  MISS %:    42.9291   MPKI: 0.18754
L2C PREFETCH  REQUESTED:     698395  ISSUED:     698395  USEFUL:      51644  USELESS:     446640
L2C USEFUL LOAD PREFETCHES:      51644 PREFETCH ISSUED TO LOWER LEVEL:     501322  ACCURACY: 10.3016
L2C TIMELY PREFETCHES:      51644 LATE PREFETCHES: 2916 DROPPED PREFETCHES: 0
L2C PREFETCHES SAME FILL-ORIGIN LEVEL: 381047 DIFFERENT FILL-ORIGIN LEVEL: 0
L2C AVERAGE MISS LATENCY: 198.311 cycles
L2C RQ	ACCESS:    3960815	FORWARD:          0	MERGED:          0	TO_CACHE:    3960773
L2C WQ	ACCESS:    1165858	FORWARD:         43	MERGED:          0	TO_CACHE:    1165858
L2C PQ	ACCESS:    1126322	FORWARD:          0	MERGED:      52544	TO_CACHE:    1073777

L2C Instructions Evicting Data 80720
L2C Translations Evicting Data 8892
L2C Data Evicting Data 1621267
L2C Instructions Evicting Instructions 5769
L2C Translations Evicting Instructions 439
L2C Data Evicting Instructions 79776
L2C Instructions Evicting Translations 429
L2C Translations Evicting Translations 46
L2C Data Evicting Translations 8818
L2C Dense regions hint from L2: 0
PSCL5 TOTAL     ACCESS:      19690  HIT:      19690  MISS:          0  HIT %:        100  MISS %:          0   MPKI: 0
PSCL5 LOAD TRANSLATION ACCESS:      19690  HIT:      19690  MISS:          0  HIT %:        100  MISS %:          0   MPKI: 0
PSCL5 PREFETCH  REQUESTED:          0  ISSUED:          0  USEFUL:          0  USELESS:          0
PSCL5 USEFUL LOAD PREFETCHES:          0 PREFETCH ISSUED TO LOWER LEVEL:          0  ACCURACY: -nan
PSCL5 TIMELY PREFETCHES:          0 LATE PREFETCHES: 0 DROPPED PREFETCHES: 0
PSCL5 PREFETCHES SAME FILL-ORIGIN LEVEL: 0 DIFFERENT FILL-ORIGIN LEVEL: 0

PSCL4 TOTAL     ACCESS:      17966  HIT:      17945  MISS:         21  HIT %:    99.8831  MISS %:   0.116887   MPKI: 0.00042
PSCL4 LOAD TRANSLATION ACCESS:      17966  HIT:      17945  MISS:         21  HIT %:    99.8831  MISS %:   0.116887   MPKI: 0.00042
PSCL4 PREFETCH  REQUESTED:          0  ISSUED:          0  USEFUL:          0  USELESS:          0
PSCL4 USEFUL LOAD PREFETCHES:          0 PREFETCH ISSUED TO LOWER LEVEL:          0  ACCURACY: -nan
PSCL4 TIMELY PREFETCHES:          0 LATE PREFETCHES: 0 DROPPED PREFETCHES: 0
PSCL4 PREFETCHES SAME FILL-ORIGIN LEVEL: 0 DIFFERENT FILL-ORIGIN LEVEL: 0

PSCL3 TOTAL     ACCESS:      19684  HIT:      19642  MISS:         42  HIT %:    99.7866  MISS %:   0.213371   MPKI: 0.00084
PSCL3 LOAD TRANSLATION ACCESS:      19684  HIT:      19642  MISS:         42  HIT %:    99.7866  MISS %:   0.213371   MPKI: 0.00084
PSCL3 PREFETCH  REQUESTED:          0  ISSUED:          0  USEFUL:          0  USELESS:          0
PSCL3 USEFUL LOAD PREFETCHES:          0 PREFETCH ISSUED TO LOWER LEVEL:          0  ACCURACY: -nan
PSCL3 TIMELY PREFETCHES:          0 LATE PREFETCHES: 0 DROPPED PREFETCHES: 0
PSCL3 PREFETCHES SAME FILL-ORIGIN LEVEL: 0 DIFFERENT FILL-ORIGIN LEVEL: 0

PSCL2 TOTAL     ACCESS:      19690  HIT:      17569  MISS:       2121  HIT %:     89.228  MISS %:     10.772   MPKI: 0.04242
PSCL2 LOAD TRANSLATION ACCESS:      19690  HIT:      17569  MISS:       2121  HIT %:     89.228  MISS %:     10.772   MPKI: 0.04242
PSCL2 PREFETCH  REQUESTED:          0  ISSUED:          0  USEFUL:          0  USELESS:          0
PSCL2 USEFUL LOAD PREFETCHES:          0 PREFETCH ISSUED TO LOWER LEVEL:          0  ACCURACY: -nan
PSCL2 TIMELY PREFETCHES:          0 LATE PREFETCHES: 0 DROPPED PREFETCHES: 0
PSCL2 PREFETCHES SAME FILL-ORIGIN LEVEL: 0 DIFFERENT FILL-ORIGIN LEVEL: 0

LLC TOTAL     ACCESS:    2907088  HIT:    1635287  MISS:    1271801  HIT %:    56.2517  MISS %:    43.7483   MPKI: 25.436
LLC LOAD      ACCESS:     345534  HIT:     239579  MISS:     105955  HIT %:    69.3359  MISS %:    30.6641   MPKI: 2.1191
LLC RFO       ACCESS:     949919  HIT:     147205  MISS:     802714  HIT %:    15.4966  MISS %:    84.5034   MPKI: 16.0543
LLC PREFETCH  ACCESS:     501321  HIT:     147304  MISS:     354017  HIT %:    29.3832  MISS %:    70.6168   MPKI: 7.08034
LLC WRITEBACK ACCESS:    1100937  HIT:    1098950  MISS:       1987  HIT %:    99.8195  MISS %:   0.180483   MPKI: 0.03974
LLC LOAD TRANSLATION ACCESS:       9377  HIT:       2249  MISS:       7128  HIT %:    23.9842  MISS %:    76.0158   MPKI: 0.14256
LLC PREFETCH  REQUESTED:          0  ISSUED:          0  USEFUL:       6743  USELESS:     347261
LLC USEFUL LOAD PREFETCHES:       6743 PREFETCH ISSUED TO LOWER LEVEL:     354017  ACCURACY: 1.90471
LLC TIMELY PREFETCHES:       6743 LATE PREFETCHES: 0 DROPPED PREFETCHES: 0
LLC PREFETCHES SAME FILL-ORIGIN LEVEL: 0 DIFFERENT FILL-ORIGIN LEVEL: 0
LLC AVERAGE MISS LATENCY: 240.157 cycles
LLC RQ	ACCESS:    1304834	FORWARD:          0	MERGED:          0	TO_CACHE:    1304830
LLC WQ	ACCESS:    1100937	FORWARD:          5	MERGED:          0	TO_CACHE:    1100937
LLC PQ	ACCESS:     501322	FORWARD:          0	MERGED:          0	TO_CACHE:     501321

LLC Dense regions hint to LLC: 0

RAW hits: 897976
Loads Generated: 12438642
Loads sent to L1D: 11540670
Stores Generated: 8859604
Stores sent to L1D: 8859606
Major fault: 0 Minor fault: 15227
Allocated PAGES: 15227

stream: 
stream:times selected: 2330537
stream:pref_filled: 81178
stream:pref_useful: 12764
stream:pref_late: 2470
stream:misses: 16591
stream:misses_by_poll: 0

CS: 
CS:times selected: 2059554
CS:pref_filled: 339422
CS:pref_useful: 326530
CS:pref_late: 52273
CS:misses: 57361
CS:misses_by_poll: 535

CPLX: 
CPLX:times selected: 265589
CPLX:pref_filled: 34092
CPLX:pref_useful: 2162
CPLX:pref_late: 243
CPLX:misses: 49613
CPLX:misses_by_poll: 21

NL_L1: 
NL:times selected: 887
NL:pref_filled: 288
NL:pref_useful: 8
NL:pref_late: 5
NL:misses: 360
NL:misses_by_poll: 0

total selections: 4656567
total_filled: 372481
total_useful: 275929
total_late: 56150
total_polluted: 556
total_misses_after_warmup: 599968
conflicts: 2694522
Degree Incremented Times: 16524
Degree Decremented Times: 118612

L1 IP Table Write Accesses: 5175902
L1 IP Table Read Accesses: 2481380
L1 RST Write Accesses: 1938375
L1 RST Read Accesses: 3876750
L1 CSPT Write Accesses: 1938375
L1 CSPT Read Accesses: 2157669
L1 RR Filter Tag Write Accesses: 772180
L1 RR Filter Tag Read Accesses: 217937249
L1 IP Table Tag Write Accesses: 8034333
L1 IP Table Tag Read Accesses: 8034333
L1 RST Tag Write Accesses: 0
L1 RST Tag Read Accesses: 17772390
L1 RR Filter Write Accesses: 0
L1 RR Filter Read Accesses: 7091867
test: 131501
L2 IP Table Read Accesses: 1119010
L2 IP Table Write Accesses: 1211737
L2 IP Table Tag Read Accesses: 723279
L2 IP Table Tag Write Accesses: 723279

DRAM Statistics
 CHANNEL 0
 RQ ROW_BUFFER_HIT:     434430  ROW_BUFFER_MISS:     835279
 DBUS_CONGESTED:        493
 WQ ROW_BUFFER_HIT:     296617  ROW_BUFFER_MISS:     572310  FULL:          0

 AVG_CONGESTED_CYCLE: 3
 All warmup complete: 2
Channel 0 Bank busy for read cycles: 0
Channel 0 Bank busy for write cycles: 0
Channel 0
Rank 0
0banks busy for read cycles: 41917211
0banks busy for write cycles: 46026
1banks busy for read cycles: 13570472
1banks busy for write cycles: 5812159
2banks busy for read cycles: 8080915
2banks busy for write cycles: 3116233
3banks busy for read cycles: 5713591
3banks busy for write cycles: 1982272
4banks busy for read cycles: 6835361
4banks busy for write cycles: 1648712
5banks busy for read cycles: 2185256
5banks busy for write cycles: 1409287
6banks busy for read cycles: 1957457
6banks busy for write cycles: 1326124
7banks busy for read cycles: 1639555
7banks busy for write cycles: 2004797
8banks busy for read cycles: 5243363
8banks busy for write cycles: 11735205

CPU 0 Branch Prediction Accuracy: 96.6462% MPKI: 5.50022 Average ROB Occupancy at Mispredict: 47.9847
Branch types
NOT_BRANCH: 41799589 83.5992%
BRANCH_DIRECT_JUMP: 445390 0.89078%
BRANCH_INDIRECT: 48845 0.09769%
BRANCH_CONDITIONAL: 5871404 11.7428%
BRANCH_DIRECT_CALL: 758108 1.51622%
BRANCH_INDIRECT_CALL: 159112 0.318224%
BRANCH_RETURN: 917210 1.83442%
BRANCH_OTHER: 0 0%

@sumon_overall_L1D    275929     55441     96548    372481   1540678   1542499
@Sumon_Early_by_class_L1D      9854    263031      1800         4
@Sumon_Late_by_class_L1D      1963     52200       157         4

@Sumon_Early_by_cycle_L1D    107462    148435     12742      1650       296       414       396       331      2504      1510        96        93
@Sumon_Late_by_cycle_L1D     36466     14997      3795       183         0         0         0         0         0         0         0         0
@Sumon_Early_stream_L1D      7105       323       303       353        67        67        86        44        83      1255        78        90
@Sumon_Early_CS_L1D     99118    147831     12327      1075       118        50        48        70      2287       105         2         0
@Sumon_Early_CPLX_L1D       276       151        76       201       103       277       239       187       126       146        15         3
@Sumon_Late_stream_L1D       782      1173         8         0         0         0         0         0         0         0         0         0
@Sumon_Late_CS_L1D     34856     13374      3787       183         0         0         0         0         0         0         0         0
@Sumon_Late_CPLX_L1D        56       101         0         0         0         0         0         0         0         0         0         0
@sumon_overall_L2C     51644      2916    446640    498406    698395    698395
@Sumon_Early_by_class_L2C      1381      1499       456         0
@Sumon_Late_by_class_L2C         0       531         0         0

@Sumon_Early_by_cycle_L2C      6915      6728      5758      2008      1662     11251      2746       434      3852      1558      1692      7040
@Sumon_Late_by_cycle_L2C      1862      1046         8         0         0         0         0         0         0         0         0         0
@Sumon_Early_stream_L2C         0         0         0         0         0         0         0        13        14       179       425       750
@Sumon_Early_CS_L2C       574       117        36         0         0         0         1         1       126       198        93       353
@Sumon_Early_CPLX_L2C         0         0         0         0         0         0         8       102        39        14        59       234
@Sumon_Late_stream_L2C         0         0         0         0         0         0         0         0         0         0         0         0
@Sumon_Late_CS_L2C       318       206         7         0         0         0         0         0         0         0         0         0
@Sumon_Late_CPLX_L2C         0         0         0         0         0         0         0         0         0         0         0         0
DRAM PAGES: 1048576
Allocated PAGES: 15227
