Initialize SIGNATURE TABLE
ST_SET: 1
ST_WAY: 256
ST_TAG_BIT: 16
ST_TAG_MASK: ffff

Initialize PATTERN TABLE
PT_SET: 512
PT_WAY: 4
SIG_DELTA_BIT: 7
C_SIG_BIT: 4
C_DELTA_BIT: 4

Initialize PREFETCH FILTER
FILTER_SET: 1024

*** ChampSim Multicore Out-of-Order Simulator ***

Warmup Instructions: 10000000
Simulation Instructions: 50000000
Number of CPUs: 1
LLC sets: 2048
LLC ways: 16
Off-chip DRAM Size: 4096 MB Channels: 1 Width: 64-bit Data Rate: 6400 MT/s
CPU 0 runs traces/SPEC2017/605.mcf_s-1554B.champsimtrace.xz
.xz
CPU 0 Bimodal branch predictor
BTB has LRU replacement policy
ITLB has LRU replacement policy
DTLB has LRU replacement policy
STLB has LRU replacement policy
L1I has LRU replacement policy
L1D has LRU replacement policy
ST_WAYS: 256
PT_SETS: 512
L2C has LRU replacement policy
LLC has LRU replacement policy
Heartbeat CPU 0 instructions: 10000001 cycles: 3564092 heartbeat IPC: 2.80576 cumulative IPC: 2.80576 (Simulation time: 0 hr 11 min 50 sec) 

Warmup complete CPU 0 instructions: 10000001 cycles: 3564092 (Simulation time: 0 hr 11 min 50 sec) 

Heartbeat CPU 0 instructions: 20000000 cycles: 48469104 heartbeat IPC: 0.222692 cumulative IPC: 0.222692 (Simulation time: 0 hr 36 min 31 sec) 
Heartbeat CPU 0 instructions: 30000001 cycles: 92602136 heartbeat IPC: 0.226588 cumulative IPC: 0.224623 (Simulation time: 0 hr 57 min 48 sec) 
Heartbeat CPU 0 instructions: 40000000 cycles: 137106042 heartbeat IPC: 0.224699 cumulative IPC: 0.224649 (Simulation time: 1 hr 6 min 8 sec) 
Heartbeat CPU 0 instructions: 50000001 cycles: 181872957 heartbeat IPC: 0.223379 cumulative IPC: 0.22433 (Simulation time: 1 hr 9 min 25 sec) 
Heartbeat CPU 0 instructions: 60000002 cycles: 226300829 heartbeat IPC: 0.225084 cumulative IPC: 0.22448 (Simulation time: 1 hr 10 min 46 sec) 
Finished CPU 0 instructions: 50000001 cycles: 222736737 cumulative IPC: 0.22448 (Simulation time: 1 hr 10 min 46 sec) 

ChampSim completed all CPUs

Region of Interest Statistics

CPU 0 cumulative IPC: 0.22448 instructions: 50000001 cycles: 222736737
ITLB TOTAL     ACCESS:   10429253  HIT:   10429253  MISS:          0  HIT %:        100  MISS %:          0   MPKI: 0
ITLB LOAD TRANSLATION ACCESS:   10429253  HIT:   10429253  MISS:          0  HIT %:        100  MISS %:          0   MPKI: 0
ITLB PREFETCH  REQUESTED:          0  ISSUED:          0  USEFUL:          0  USELESS:          0
ITLB USEFUL LOAD PREFETCHES:          0 PREFETCH ISSUED TO LOWER LEVEL:          0  ACCURACY: -nan
ITLB TIMELY PREFETCHES:          0 LATE PREFETCHES: 0 DROPPED PREFETCHES: 0
ITLB PREFETCHES SAME FILL-ORIGIN LEVEL: 0 DIFFERENT FILL-ORIGIN LEVEL: 0
ITLB AVERAGE MISS LATENCY: -nan cycles
ITLB RQ	ACCESS:   12674275	FORWARD:          0	MERGED:    2245022	TO_CACHE:   10429253

ITLB_Dead_block_count 0 0
ITLB_inaccurate_prefetch_count 0 0
Interactions: positive negative neutral
ITLB_interactions 0 0 0
ITLB_positive 0 0 0
ITLB_negative 0 0 0
ITLB_neutral 0 0 0 0 0 0
DTLB TOTAL     ACCESS:   16117428  HIT:   15920280  MISS:     197148  HIT %:    98.7768  MISS %:     1.2232   MPKI: 3.94296
DTLB LOAD TRANSLATION ACCESS:   16117428  HIT:   15920280  MISS:     197148  HIT %:    98.7768  MISS %:     1.2232   MPKI: 3.94296
DTLB PREFETCH  REQUESTED:          0  ISSUED:          0  USEFUL:          0  USELESS:          0
DTLB USEFUL LOAD PREFETCHES:          0 PREFETCH ISSUED TO LOWER LEVEL:          0  ACCURACY: -nan
DTLB TIMELY PREFETCHES:          0 LATE PREFETCHES: 0 DROPPED PREFETCHES: 0
DTLB PREFETCHES SAME FILL-ORIGIN LEVEL: 0 DIFFERENT FILL-ORIGIN LEVEL: 0
DTLB AVERAGE MISS LATENCY: 13.018 cycles
DTLB RQ	ACCESS:   19493186	FORWARD:          0	MERGED:    3372230	TO_CACHE:   16120956

DTLB_Dead_block_count 197144 4
DTLB_inaccurate_prefetch_count 0 0
Interactions: positive negative neutral
DTLB_interactions 0 0 0
DTLB_positive 0 0 0
DTLB_negative 0 0 0
DTLB_neutral 0 0 0 0 0 0
STLB TOTAL     ACCESS:     197148  HIT:     192737  MISS:       4411  HIT %:    97.7626  MISS %:    2.23741   MPKI: 0.08822
STLB LOAD TRANSLATION ACCESS:     197148  HIT:     192737  MISS:       4411  HIT %:    97.7626  MISS %:    2.23741   MPKI: 0.08822
STLB PREFETCH  REQUESTED:          0  ISSUED:          0  USEFUL:          0  USELESS:          0
STLB USEFUL LOAD PREFETCHES:          0 PREFETCH ISSUED TO LOWER LEVEL:          0  ACCURACY: -nan
STLB TIMELY PREFETCHES:          0 LATE PREFETCHES: 0 DROPPED PREFETCHES: 0
STLB PREFETCHES SAME FILL-ORIGIN LEVEL: 0 DIFFERENT FILL-ORIGIN LEVEL: 0
STLB AVERAGE MISS LATENCY: 178.998 cycles
STLB RQ	ACCESS:     197148	FORWARD:          0	MERGED:          0	TO_CACHE:     197148

STLB_Dead_block_count 4407 4
STLB_inaccurate_prefetch_count 0 0
Interactions: positive negative neutral
STLB_interactions 0 0 0
STLB_positive 0 0 0
STLB_negative 0 0 0
STLB_neutral 0 0 0 0 0 0
STLB Hit, L1D data hit: 0
STLB Hit, L2C data hit: 0
STLB Hit, LLC data hit: 0
STLB Hit, LLC data miss: 0
STLB STLB hints to L2: 0
L1D TOTAL     ACCESS:   18247767  HIT:   10556050  MISS:    7691717  HIT %:    57.8484  MISS %:    42.1516   MPKI: 153.834
L1D LOAD      ACCESS:   15740881  HIT:    8202587  MISS:    7538294  HIT %:    52.1101  MISS %:    47.8899   MPKI: 150.766
L1D RFO       ACCESS:    2506886  HIT:    2353463  MISS:     153423  HIT %:    93.8799  MISS %:    6.12006   MPKI: 3.06846
L1D PREFETCH  REQUESTED:          0  ISSUED:          0  USEFUL:          0  USELESS:          0
L1D USEFUL LOAD PREFETCHES:          0 PREFETCH ISSUED TO LOWER LEVEL:          0  ACCURACY: -nan
L1D TIMELY PREFETCHES:          0 LATE PREFETCHES: 0 DROPPED PREFETCHES: 0
L1D PREFETCHES SAME FILL-ORIGIN LEVEL: 0 DIFFERENT FILL-ORIGIN LEVEL: 0
L1D AVERAGE MISS LATENCY: 97.5954 cycles
L1D RQ	ACCESS:   20634113	FORWARD:          0	MERGED:    4009902	TO_CACHE:   16596705
L1D WQ	ACCESS:    3596625	FORWARD:      27506	MERGED:     700144	TO_CACHE:    2896481

L1D_Dead_block_count 829368 6708930
L1D_inaccurate_prefetch_count 0 0
Interactions: positive negative neutral
L1D_interactions 0 0 0
L1D_positive 0 0 0
L1D_negative 0 0 0
L1D_neutral 0 0 0 0 0 0
L1D UNIQUE REGIONS ACCESSED: 0
L1D REGIONS CONFLICTS: 0
L1D Cross Page Prefetch Requests: 0
L1D Same Page Prefetch Requests: 0
L1D ROI Sum of L1D PQ occupancy: 0
L1D PREFETCHES PUSHED FROM L2C: 0
L1I TOTAL     ACCESS:   12674273  HIT:   12674273  MISS:          0  HIT %:        100  MISS %:          0   MPKI: 0
L1I LOAD      ACCESS:   12674273  HIT:   12674273  MISS:          0  HIT %:        100  MISS %:          0   MPKI: 0
L1I PREFETCH  REQUESTED:          0  ISSUED:          0  USEFUL:          0  USELESS:          0
L1I USEFUL LOAD PREFETCHES:          0 PREFETCH ISSUED TO LOWER LEVEL:          0  ACCURACY: -nan
L1I TIMELY PREFETCHES:          0 LATE PREFETCHES: 0 DROPPED PREFETCHES: 0
L1I PREFETCHES SAME FILL-ORIGIN LEVEL: 0 DIFFERENT FILL-ORIGIN LEVEL: 0
L1I AVERAGE MISS LATENCY: -nan cycles
L1I RQ	ACCESS:   17735358	FORWARD:          0	MERGED:    5061083	TO_CACHE:   12674275

L1I_Dead_block_count 0 0
L1I_inaccurate_prefetch_count 0 0
Interactions: positive negative neutral
L1I_interactions 0 0 0
L1I_positive 0 0 0
L1I_negative 0 0 0
L1I_neutral 0 0 0 0 0 0
BTB TOTAL     ACCESS:    8799472  HIT:    8799440  MISS:         32  HIT %:    99.9996  MISS %: 0.000363658   MPKI: 0.00064
BTB BRANCH_DIRECT_JUMP	ACCESS:    2054757  HIT:    2054751  MISS:          6
BTB BRANCH_INDIRECT	ACCESS:          0  HIT:          0  MISS:          0
BTB BRANCH_CONDITIONAL	ACCESS:    6743911  HIT:    6743889  MISS:         22
BTB BRANCH_DIRECT_CALL	ACCESS:        402  HIT:        400  MISS:          2
BTB BRANCH_INDIRECT_CALL	ACCESS:          0  HIT:          0  MISS:          0
BTB BRANCH_RETURN	ACCESS:        402  HIT:        400  MISS:          2
BTB BRANCH_OTHER ACCESS:          0  HIT:          0  MISS:          0

L2C TOTAL     ACCESS:    9100171  HIT:    1386489  MISS:    7713682  HIT %:    15.2359  MISS %:    84.7641   MPKI: 154.274
L2C LOAD      ACCESS:    7538292  HIT:     858198  MISS:    6680094  HIT %:    11.3845  MISS %:    88.6155   MPKI: 133.602
L2C DATA LOAD MPKI: 133.602
L2C INSTRUCTION LOAD MPKI: 0
L2C RFO       ACCESS:     153423  HIT:        212  MISS:     153211  HIT %:    0.13818  MISS %:    99.8618   MPKI: 3.06422
L2C PREFETCH  ACCESS:    1219519  HIT:     340660  MISS:     878859  HIT %:     27.934  MISS %:     72.066   MPKI: 17.5772
L2C DATA PREFETCH MPKI: 17.5772
L2C INSTRUCTION PREFETCH MPKI: 0
L2C WRITEBACK ACCESS:     184526  HIT:     184092  MISS:        434  HIT %:    99.7648  MISS %:   0.235197   MPKI: 0.00868
L2C LOAD TRANSLATION ACCESS:       4411  HIT:       3327  MISS:       1084  HIT %:    75.4251  MISS %:    24.5749   MPKI: 0.02168
L2C PREFETCH  REQUESTED:   18236356  ISSUED:   18226902  USEFUL:     857788  USELESS:      21062
L2C USEFUL LOAD PREFETCHES:     857788 PREFETCH ISSUED TO LOWER LEVEL:   16512462  ACCURACY: 5.19479
L2C TIMELY PREFETCHES:     857788 LATE PREFETCHES: 43005 DROPPED PREFETCHES: 0
L2C PREFETCHES SAME FILL-ORIGIN LEVEL: 921863 DIFFERENT FILL-ORIGIN LEVEL: 15590599
L2C AVERAGE MISS LATENCY: 86.2712 cycles
L2C RQ	ACCESS:    7696132	FORWARD:          0	MERGED:          0	TO_CACHE:    7696131
L2C WQ	ACCESS:     184526	FORWARD:          1	MERGED:          0	TO_CACHE:     184526
L2C PQ	ACCESS:   18226902	FORWARD:          0	MERGED:     778688	TO_CACHE:   17448214

L2C_Dead_block_count 5932981 858407
L2C_inaccurate_prefetch_count 0 16512462
Interactions: positive negative neutral
L2C_interactions 771648 16798 109607
L2C_positive 771648 0 0
L2C_negative 0 16798 0
L2C_neutral 105343 2396 0 0 0 1868
L2C Instructions Evicting Data 0
L2C Translations Evicting Data 1084
L2C Data Evicting Data 7711080
L2C Instructions Evicting Instructions 0
L2C Translations Evicting Instructions 0
L2C Data Evicting Instructions 0
L2C Instructions Evicting Translations 0
L2C Translations Evicting Translations 0
L2C Data Evicting Translations 1084
L2C Dense regions hint from L2: 0
PSCL5 TOTAL     ACCESS:       4411  HIT:       4411  MISS:          0  HIT %:        100  MISS %:          0   MPKI: 0
PSCL5 LOAD TRANSLATION ACCESS:       4411  HIT:       4411  MISS:          0  HIT %:        100  MISS %:          0   MPKI: 0
PSCL5 PREFETCH  REQUESTED:          0  ISSUED:          0  USEFUL:          0  USELESS:          0
PSCL5 USEFUL LOAD PREFETCHES:          0 PREFETCH ISSUED TO LOWER LEVEL:          0  ACCURACY: -nan
PSCL5 TIMELY PREFETCHES:          0 LATE PREFETCHES: 0 DROPPED PREFETCHES: 0
PSCL5 PREFETCHES SAME FILL-ORIGIN LEVEL: 0 DIFFERENT FILL-ORIGIN LEVEL: 0

PSCL5_Dead_block_count 0 0
PSCL5_inaccurate_prefetch_count 0 0
Interactions: positive negative neutral
PSCL5_interactions 0 0 0
PSCL5_positive 0 0 0
PSCL5_negative 0 0 0
PSCL5_neutral 0 0 0 0 0 0
PSCL4 TOTAL     ACCESS:       4411  HIT:       4411  MISS:          0  HIT %:        100  MISS %:          0   MPKI: 0
PSCL4 LOAD TRANSLATION ACCESS:       4411  HIT:       4411  MISS:          0  HIT %:        100  MISS %:          0   MPKI: 0
PSCL4 PREFETCH  REQUESTED:          0  ISSUED:          0  USEFUL:          0  USELESS:          0
PSCL4 USEFUL LOAD PREFETCHES:          0 PREFETCH ISSUED TO LOWER LEVEL:          0  ACCURACY: -nan
PSCL4 TIMELY PREFETCHES:          0 LATE PREFETCHES: 0 DROPPED PREFETCHES: 0
PSCL4 PREFETCHES SAME FILL-ORIGIN LEVEL: 0 DIFFERENT FILL-ORIGIN LEVEL: 0

PSCL4_Dead_block_count 0 0
PSCL4_inaccurate_prefetch_count 0 0
Interactions: positive negative neutral
PSCL4_interactions 0 0 0
PSCL4_positive 0 0 0
PSCL4_negative 0 0 0
PSCL4_neutral 0 0 0 0 0 0
PSCL3 TOTAL     ACCESS:       4411  HIT:       4411  MISS:          0  HIT %:        100  MISS %:          0   MPKI: 0
PSCL3 LOAD TRANSLATION ACCESS:       4411  HIT:       4411  MISS:          0  HIT %:        100  MISS %:          0   MPKI: 0
PSCL3 PREFETCH  REQUESTED:          0  ISSUED:          0  USEFUL:          0  USELESS:          0
PSCL3 USEFUL LOAD PREFETCHES:          0 PREFETCH ISSUED TO LOWER LEVEL:          0  ACCURACY: -nan
PSCL3 TIMELY PREFETCHES:          0 LATE PREFETCHES: 0 DROPPED PREFETCHES: 0
PSCL3 PREFETCHES SAME FILL-ORIGIN LEVEL: 0 DIFFERENT FILL-ORIGIN LEVEL: 0

PSCL3_Dead_block_count 0 0
PSCL3_inaccurate_prefetch_count 0 0
Interactions: positive negative neutral
PSCL3_interactions 0 0 0
PSCL3_positive 0 0 0
PSCL3_negative 0 0 0
PSCL3_neutral 0 0 0 0 0 0
PSCL2 TOTAL     ACCESS:       4411  HIT:       4402  MISS:          9  HIT %:     99.796  MISS %:   0.204035   MPKI: 0.00018
PSCL2 LOAD TRANSLATION ACCESS:       4411  HIT:       4402  MISS:          9  HIT %:     99.796  MISS %:   0.204035   MPKI: 0.00018
PSCL2 PREFETCH  REQUESTED:          0  ISSUED:          0  USEFUL:          0  USELESS:          0
PSCL2 USEFUL LOAD PREFETCHES:          0 PREFETCH ISSUED TO LOWER LEVEL:          0  ACCURACY: -nan
PSCL2 TIMELY PREFETCHES:          0 LATE PREFETCHES: 0 DROPPED PREFETCHES: 0
PSCL2 PREFETCHES SAME FILL-ORIGIN LEVEL: 0 DIFFERENT FILL-ORIGIN LEVEL: 0

PSCL2_Dead_block_count 0 0
PSCL2_inaccurate_prefetch_count 0 0
Interactions: positive negative neutral
PSCL2_interactions 0 0 0
PSCL2_positive 0 0 0
PSCL2_negative 0 0 0
PSCL2_neutral 0 0 0 0 0 0
LLC TOTAL     ACCESS:   19777850  HIT:   11163770  MISS:    8614080  HIT %:    56.4458  MISS %:    43.5542   MPKI: 172.282
LLC LOAD      ACCESS:    6637090  HIT:    2588545  MISS:    4048545  HIT %:    39.0012  MISS %:    60.9988   MPKI: 80.9709
LLC RFO       ACCESS:     153211  HIT:       4802  MISS:     148409  HIT %:    3.13424  MISS %:    96.8658   MPKI: 2.96818
LLC PREFETCH  ACCESS:   12802169  HIT:    8386397  MISS:    4415772  HIT %:    65.5076  MISS %:    34.4924   MPKI: 88.3154
LLC WRITEBACK ACCESS:     184296  HIT:     183962  MISS:        334  HIT %:    99.8188  MISS %:    0.18123   MPKI: 0.00668
LLC LOAD TRANSLATION ACCESS:       1084  HIT:         64  MISS:       1020  HIT %:    5.90406  MISS %:    94.0959   MPKI: 0.0204
LLC PREFETCH  REQUESTED:          0  ISSUED:          0  USEFUL:    2490045  USELESS:    1922821
LLC USEFUL LOAD PREFETCHES:    2490045 PREFETCH ISSUED TO LOWER LEVEL:    6292811  ACCURACY: 39.5697
LLC TIMELY PREFETCHES:    2490045 LATE PREFETCHES: 1877031 DROPPED PREFETCHES: 0
LLC PREFETCHES SAME FILL-ORIGIN LEVEL: 6247022 DIFFERENT FILL-ORIGIN LEVEL: 0
LLC AVERAGE MISS LATENCY: 113.969 cycles
LLC RQ	ACCESS:    6791388	FORWARD:          0	MERGED:          0	TO_CACHE:    6791388
LLC WQ	ACCESS:     184296	FORWARD:          0	MERGED:          0	TO_CACHE:     184296
LLC PQ	ACCESS:   16512462	FORWARD:          0	MERGED:     343743	TO_CACHE:   16168719

LLC_Dead_block_count 362716 1958229
LLC_inaccurate_prefetch_count 243871 6048940
Interactions: positive negative neutral
LLC_interactions 2981848 846458 1518963
LLC_positive 2933885 5017 42946
LLC_negative 14247 789538 42673
LLC_neutral 363903 98304 112469 38638 1871 903778
LLC Dense regions hint to LLC: 0

RAW hits: 2034210
Loads Generated: 22668326
Loads sent to L1D: 20634113
Stores Generated: 3596621
Stores sent to L1D: 3596625
Major fault: 0 Minor fault: 6307
Allocated PAGES: 6307
 All Calls: 9001319
 Critical Calls: 9001319
------------------
Depth Distribution
------------------
depth 0: 0
depth 1: 8596862
depth 2: 3982491
depth 3: 2586696
depth 4: 1881781
depth 5: 1342368
depth 6: 1091133
depth 7: 920884
depth 8: 644783
depth 9: 367028
depth 10: 43470
depth 11: 2735
depth 12: 9
depth 13: 0
depth 14: 0
depth 15: 0
depth 16: 0
depth 17: 0
depth 18: 0
depth 19: 0
depth 20: 0
depth 21: 0
depth 22: 0
depth 23: 0
depth 24: 0
depth 25: 0
depth 26: 0
depth 27: 0
depth 28: 0
depth 29: 0
Total: 21460240
-----------------------------
-----------------------------
	Captured at Filter
-----------------------------
depth 0: 0
depth 1: 50356
depth 2: 14493
depth 3: 7263
depth 4: 5047
depth 5: 3104
depth 6: 2176
depth 7: 1701
depth 8: 1158
depth 9: 633
depth 10: 89
depth 11: 4
depth 12: 0
depth 13: 0
depth 14: 0
depth 15: 0
depth 16: 0
depth 17: 0
depth 18: 0
depth 19: 0
depth 20: 0
depth 21: 0
depth 22: 0
depth 23: 0
depth 24: 0
depth 25: 0
depth 26: 0
depth 27: 0
depth 28: 0
depth 29: 0
-----------------------------
-----------------------------
		Lost at Page
-----------------------------
depth 0: 0
depth 1: 465134
depth 2: 248552
depth 3: 188161
depth 4: 169947
depth 5: 132876
depth 6: 113656
depth 7: 102694
depth 8: 80775
depth 9: 52573
depth 10: 7007
depth 11: 514
depth 12: 3
depth 13: 0
depth 14: 0
depth 15: 0
depth 16: 0
depth 17: 0
depth 18: 0
depth 19: 0
depth 20: 0
depth 21: 0
depth 22: 0
depth 23: 0
depth 24: 0
depth 25: 0
depth 26: 0
depth 27: 0
depth 28: 0
depth 29: 0
-----------------------------
-----------------------------
	Lost due to PQ Size
-----------------------------
935357
-----------------------------
ST read accesses: 7343643
ST write accesses: 194653
PT read accesses: 145640076
PT write accesses: 11003879
FILTER read accesses: 33545986
FILTER write accesses: 9649664
GHR read accesses: 8376467
GHR write accesses: 1268723
GHR counter read accesses: 119745532
GHR counter write accesses: 9419658
ST tag read accesses: 2998224109
ST tag write accesses: 65435394

DRAM Statistics
 CHANNEL 0
 RQ ROW_BUFFER_HIT:    6551635  ROW_BUFFER_MISS:    2062098
 DBUS_CONGESTED:      11898
 WQ ROW_BUFFER_HIT:      72647  ROW_BUFFER_MISS:     111558  FULL:          0

 AVG_CONGESTED_CYCLE: 5
 All warmup complete: 2
Channel 0 Bank busy for read cycles: 0
Channel 0 Bank busy for write cycles: 0
Channel 0
Rank 0
0banks busy for read cycles: 21078017
0banks busy for write cycles: 5324
1banks busy for read cycles: 34402726
1banks busy for write cycles: 2553420
2banks busy for read cycles: 36537418
2banks busy for write cycles: 1392954
3banks busy for read cycles: 34983266
3banks busy for write cycles: 942969
4banks busy for read cycles: 30052040
4banks busy for write cycles: 713320
5banks busy for read cycles: 23054950
5banks busy for write cycles: 654186
6banks busy for read cycles: 15285869
6banks busy for write cycles: 667408
7banks busy for read cycles: 8589151
7banks busy for write cycles: 1071569
8banks busy for read cycles: 4697445
8banks busy for write cycles: 6054706

CPU 0 Branch Prediction Accuracy: 97.7265% MPKI: 4.14186 Average ROB Occupancy at Mispredict: 51.7804
Branch types
NOT_BRANCH: 40890881 81.7818%
BRANCH_DIRECT_JUMP: 2054757 4.10951%
BRANCH_INDIRECT: 0 0%
BRANCH_CONDITIONAL: 7053561 14.1071%
BRANCH_DIRECT_CALL: 402 0.000804%
BRANCH_INDIRECT_CALL: 0 0%
BRANCH_RETURN: 402 0.000804%
BRANCH_OTHER: 0 0%

@sumon_overall_L1D         0         0         0         0         0         0         0
@Sumon_Early_by_class_L1D         0         0         0         0
@Sumon_Late_by_class_L1D         0         0         0         0

@Sumon_Early_by_cycle_L1D         0         0         0         0         0         0         0         0         0         0         0         0
@Sumon_Late_by_cycle_L1D         0         0         0         0         0         0
@Sumon_Early_stream_L1D         0         0         0         0         0         0         0         0         0         0         0         0
@Sumon_Early_CS_L1D         0         0         0         0         0         0         0         0         0         0         0         0
@Sumon_Early_CPLX_L1D         0         0         0         0         0         0         0         0         0         0         0         0
@Sumon_Late_stream_L1D         0         0         0         0         0         0
@Sumon_Late_CS_L1D         0         0         0         0         0         0
@Sumon_Late_CPLX_L1D         0         0         0         0         0         0
@sumon_overall_L2C    857788     43005         0     21062    878859  18226902  18236356
@Sumon_Early_by_class_L2C         0         0         0         0
@Sumon_Late_by_class_L2C         0         0         0         0

@Sumon_Early_by_cycle_L2C    482711    152956    153616     51392     10326      6189       466        77        43         9         1         2
@Sumon_Late_by_cycle_L2C      5443     11965      9822      9617      6157         1
@Sumon_Early_stream_L2C         0         0         0         0         0         0         0         0         0         0         0         0
@Sumon_Early_CS_L2C         0         0         0         0         0         0         0         0         0         0         0         0
@Sumon_Early_CPLX_L2C         0         0         0         0         0         0         0         0         0         0         0         0
@Sumon_Late_stream_L2C         0         0         0         0         0         0
@Sumon_Late_CS_L2C         0         0         0         0         0         0
@Sumon_Late_CPLX_L2C         0         0         0         0         0         0
DRAM PAGES: 1048576
Allocated PAGES: 6307
