Initialize SIGNATURE TABLE
ST_SET: 1
ST_WAY: 256
ST_TAG_BIT: 16
ST_TAG_MASK: ffff

Initialize PATTERN TABLE
PT_SET: 512
PT_WAY: 4
SIG_DELTA_BIT: 7
C_SIG_BIT: 4
C_DELTA_BIT: 4

Initialize PREFETCH FILTER
FILTER_SET: 1024

*** ChampSim Multicore Out-of-Order Simulator ***

Warmup Instructions: 10000000
Simulation Instructions: 50000000
Number of CPUs: 1
LLC sets: 2048
LLC ways: 16
Off-chip DRAM Size: 4096 MB Channels: 1 Width: 64-bit Data Rate: 6400 MT/s
CPU 0 runs traces/SPEC2017/607.cactuBSSN_s-3477B.champsimtrace.xz
.xz
CPU 0 Bimodal branch predictor
BTB has LRU replacement policy
ITLB has LRU replacement policy
DTLB has LRU replacement policy
STLB has LRU replacement policy
L1I has LRU replacement policy
L1D has LRU replacement policy
ST_WAYS: 256
PT_SETS: 512
L2C has LRU replacement policy
LLC has LRU replacement policy
Heartbeat CPU 0 instructions: 10000000 cycles: 3672111 heartbeat IPC: 2.72323 cumulative IPC: 2.72323 (Simulation time: 0 hr 9 min 48 sec) 

Warmup complete CPU 0 instructions: 10000003 cycles: 3672112 (Simulation time: 0 hr 9 min 48 sec) 

Heartbeat CPU 0 instructions: 20000001 cycles: 14870491 heartbeat IPC: 0.892986 cumulative IPC: 0.892986 (Simulation time: 0 hr 20 min 33 sec) 
Heartbeat CPU 0 instructions: 30000000 cycles: 25995824 heartbeat IPC: 0.898849 cumulative IPC: 0.895908 (Simulation time: 0 hr 31 min 30 sec) 
Heartbeat CPU 0 instructions: 40000002 cycles: 37138416 heartbeat IPC: 0.897457 cumulative IPC: 0.896424 (Simulation time: 0 hr 42 min 8 sec) 
Heartbeat CPU 0 instructions: 50000000 cycles: 48379827 heartbeat IPC: 0.889568 cumulative IPC: 0.8947 (Simulation time: 0 hr 52 min 14 sec) 
Heartbeat CPU 0 instructions: 60000000 cycles: 59484269 heartbeat IPC: 0.900541 cumulative IPC: 0.895862 (Simulation time: 0 hr 59 min 9 sec) 
Finished CPU 0 instructions: 50000001 cycles: 55812158 cumulative IPC: 0.895862 (Simulation time: 0 hr 59 min 9 sec) 

ChampSim completed all CPUs

Region of Interest Statistics

CPU 0 cumulative IPC: 0.895862 instructions: 50000001 cycles: 55812158
ITLB TOTAL     ACCESS:    6972510  HIT:    6972502  MISS:          8  HIT %:    99.9999  MISS %: 0.000114736   MPKI: 0.00016
ITLB LOAD TRANSLATION ACCESS:    6972510  HIT:    6972502  MISS:          8  HIT %:    99.9999  MISS %: 0.000114736   MPKI: 0.00016
ITLB PREFETCH  REQUESTED:          0  ISSUED:          0  USEFUL:          0  USELESS:          0
ITLB USEFUL LOAD PREFETCHES:          0 PREFETCH ISSUED TO LOWER LEVEL:          0  ACCURACY: -nan
ITLB TIMELY PREFETCHES:          0 LATE PREFETCHES: 0 DROPPED PREFETCHES: 0
ITLB PREFETCHES SAME FILL-ORIGIN LEVEL: 0 DIFFERENT FILL-ORIGIN LEVEL: 0
ITLB AVERAGE MISS LATENCY: 362 cycles
ITLB RQ	ACCESS:    8542387	FORWARD:          0	MERGED:    1569877	TO_CACHE:    6972510

ITLB_Dead_block_count 4 4
ITLB_inaccurate_prefetch_count 0 0
Interactions: positive negative neutral
ITLB_interactions 0 0 0
ITLB_positive 0 0 0
ITLB_negative 0 0 0
ITLB_neutral 0 0 0 0 0 0
DTLB TOTAL     ACCESS:   15024829  HIT:   13132103  MISS:    1892726  HIT %:    87.4027  MISS %:    12.5973   MPKI: 37.8545
DTLB LOAD TRANSLATION ACCESS:   15024829  HIT:   13132103  MISS:    1892726  HIT %:    87.4027  MISS %:    12.5973   MPKI: 37.8545
DTLB PREFETCH  REQUESTED:          0  ISSUED:          0  USEFUL:          0  USELESS:          0
DTLB USEFUL LOAD PREFETCHES:          0 PREFETCH ISSUED TO LOWER LEVEL:          0  ACCURACY: -nan
DTLB TIMELY PREFETCHES:          0 LATE PREFETCHES: 0 DROPPED PREFETCHES: 0
DTLB PREFETCHES SAME FILL-ORIGIN LEVEL: 0 DIFFERENT FILL-ORIGIN LEVEL: 0
DTLB AVERAGE MISS LATENCY: 10.0539 cycles
DTLB RQ	ACCESS:   19722262	FORWARD:          0	MERGED:    4504404	TO_CACHE:   15217858

DTLB_Dead_block_count 1892722 4
DTLB_inaccurate_prefetch_count 0 0
Interactions: positive negative neutral
DTLB_interactions 0 0 0
DTLB_positive 0 0 0
DTLB_negative 0 0 0
DTLB_neutral 0 0 0 0 0 0
STLB TOTAL     ACCESS:    1892734  HIT:    1890531  MISS:       2203  HIT %:    99.8836  MISS %:   0.116392   MPKI: 0.04406
STLB LOAD TRANSLATION ACCESS:    1892734  HIT:    1890531  MISS:       2203  HIT %:    99.8836  MISS %:   0.116392   MPKI: 0.04406
STLB PREFETCH  REQUESTED:          0  ISSUED:          0  USEFUL:          0  USELESS:          0
STLB USEFUL LOAD PREFETCHES:          0 PREFETCH ISSUED TO LOWER LEVEL:          0  ACCURACY: -nan
STLB TIMELY PREFETCHES:          0 LATE PREFETCHES: 0 DROPPED PREFETCHES: 0
STLB PREFETCHES SAME FILL-ORIGIN LEVEL: 0 DIFFERENT FILL-ORIGIN LEVEL: 0
STLB AVERAGE MISS LATENCY: 581.393 cycles
STLB RQ	ACCESS:    1892734	FORWARD:          0	MERGED:          0	TO_CACHE:    1892734

STLB_Dead_block_count 2199 4
STLB_inaccurate_prefetch_count 0 0
Interactions: positive negative neutral
STLB_interactions 0 0 0
STLB_positive 0 0 0
STLB_negative 0 0 0
STLB_neutral 0 0 0 0 0 0
STLB Hit, L1D data hit: 0
STLB Hit, L2C data hit: 0
STLB Hit, LLC data hit: 0
STLB Hit, LLC data miss: 0
STLB STLB hints to L2: 0
L1D TOTAL     ACCESS:   19616844  HIT:   15953619  MISS:    3663225  HIT %:    81.3261  MISS %:    18.6739   MPKI: 73.2645
L1D LOAD      ACCESS:   15664024  HIT:   12302102  MISS:    3361922  HIT %:    78.5373  MISS %:    21.4627   MPKI: 67.2384
L1D RFO       ACCESS:    3952820  HIT:    3651517  MISS:     301303  HIT %:    92.3775  MISS %:    7.62248   MPKI: 6.02606
L1D PREFETCH  REQUESTED:          0  ISSUED:          0  USEFUL:          0  USELESS:          0
L1D USEFUL LOAD PREFETCHES:          0 PREFETCH ISSUED TO LOWER LEVEL:          0  ACCURACY: -nan
L1D TIMELY PREFETCHES:          0 LATE PREFETCHES: 0 DROPPED PREFETCHES: 0
L1D PREFETCHES SAME FILL-ORIGIN LEVEL: 0 DIFFERENT FILL-ORIGIN LEVEL: 0
L1D AVERAGE MISS LATENCY: 24.2252 cycles
L1D RQ	ACCESS:   19346086	FORWARD:          0	MERGED:    3586576	TO_CACHE:   15745440
L1D WQ	ACCESS:    4003958	FORWARD:      14070	MERGED:      27136	TO_CACHE:    3976822

L1D_Dead_block_count 663453 2698469
L1D_inaccurate_prefetch_count 0 0
Interactions: positive negative neutral
L1D_interactions 0 0 0
L1D_positive 0 0 0
L1D_negative 0 0 0
L1D_neutral 0 0 0 0 0 0
L1D UNIQUE REGIONS ACCESSED: 0
L1D REGIONS CONFLICTS: 0
L1D Cross Page Prefetch Requests: 0
L1D Same Page Prefetch Requests: 0
L1D ROI Sum of L1D PQ occupancy: 0
L1D PREFETCHES PUSHED FROM L2C: 0
L1I TOTAL     ACCESS:    7806874  HIT:    6360750  MISS:    1446124  HIT %:    81.4763  MISS %:    18.5237   MPKI: 28.9225
L1I LOAD      ACCESS:    7806874  HIT:    6360750  MISS:    1446124  HIT %:    81.4763  MISS %:    18.5237   MPKI: 28.9225
L1I PREFETCH  REQUESTED:          0  ISSUED:          0  USEFUL:          0  USELESS:          0
L1I USEFUL LOAD PREFETCHES:          0 PREFETCH ISSUED TO LOWER LEVEL:          0  ACCURACY: -nan
L1I TIMELY PREFETCHES:          0 LATE PREFETCHES: 0 DROPPED PREFETCHES: 0
L1I PREFETCHES SAME FILL-ORIGIN LEVEL: 0 DIFFERENT FILL-ORIGIN LEVEL: 0
L1I AVERAGE MISS LATENCY: 14.1096 cycles
L1I RQ	ACCESS:   11866694	FORWARD:          0	MERGED:    3324307	TO_CACHE:    8542387

L1I_Dead_block_count 1446120 4
L1I_inaccurate_prefetch_count 0 0
Interactions: positive negative neutral
L1I_interactions 0 0 0
L1I_positive 0 0 0
L1I_negative 0 0 0
L1I_neutral 0 0 0 0 0 0
BTB TOTAL     ACCESS:     298748  HIT:     280450  MISS:      18298  HIT %:    93.8751  MISS %:    6.12489   MPKI: 0.36596
BTB BRANCH_DIRECT_JUMP	ACCESS:      54418  HIT:      54387  MISS:         31
BTB BRANCH_INDIRECT	ACCESS:       9044  HIT:       9042  MISS:          2
BTB BRANCH_CONDITIONAL	ACCESS:     126692  HIT:     126606  MISS:         86
BTB BRANCH_DIRECT_CALL	ACCESS:      54297  HIT:      54253  MISS:         44
BTB BRANCH_INDIRECT_CALL	ACCESS:          0  HIT:          0  MISS:          0
BTB BRANCH_RETURN	ACCESS:      54297  HIT:      36162  MISS:      18135
BTB BRANCH_OTHER ACCESS:          0  HIT:          0  MISS:          0

L2C TOTAL     ACCESS:    8170891  HIT:    7909358  MISS:     261533  HIT %:    96.7992  MISS %:    3.20079   MPKI: 5.23066
L2C LOAD      ACCESS:    4807568  HIT:    4590152  MISS:     217416  HIT %:    95.4776  MISS %:    4.52237   MPKI: 4.34832
L2C DATA LOAD MPKI: 4.34052
L2C INSTRUCTION LOAD MPKI: 0.0078
L2C RFO       ACCESS:     301048  HIT:     271736  MISS:      29312  HIT %:    90.2633  MISS %:    9.73665   MPKI: 0.58624
L2C PREFETCH  ACCESS:    2734201  HIT:    2722473  MISS:      11728  HIT %:    99.5711  MISS %:   0.428937   MPKI: 0.23456
L2C DATA PREFETCH MPKI: 0.23456
L2C INSTRUCTION PREFETCH MPKI: 0
L2C WRITEBACK ACCESS:     324816  HIT:     324778  MISS:         38  HIT %:    99.9883  MISS %:  0.0116989   MPKI: 0.00076
L2C LOAD TRANSLATION ACCESS:       3258  HIT:        219  MISS:       3039  HIT %:    6.72192  MISS %:    93.2781   MPKI: 0.06078
L2C PREFETCH  REQUESTED:    3870790  ISSUED:    3706164  USEFUL:      11438  USELESS:        312
L2C USEFUL LOAD PREFETCHES:      11438 PREFETCH ISSUED TO LOWER LEVEL:     438027  ACCURACY: 2.61125
L2C TIMELY PREFETCHES:      11438 LATE PREFETCHES: 559 DROPPED PREFETCHES: 0
L2C PREFETCHES SAME FILL-ORIGIN LEVEL: 12287 DIFFERENT FILL-ORIGIN LEVEL: 425740
L2C AVERAGE MISS LATENCY: 125.754 cycles
L2C RQ	ACCESS:    5112607	FORWARD:          0	MERGED:          0	TO_CACHE:    5111874
L2C WQ	ACCESS:     324816	FORWARD:        786	MERGED:          0	TO_CACHE:     324816
L2C PQ	ACCESS:    3706164	FORWARD:          0	MERGED:     485160	TO_CACHE:    3220951

L2C_Dead_block_count 12214 236994
L2C_inaccurate_prefetch_count 574 437453
Interactions: positive negative neutral
L2C_interactions 2555 49 9431
L2C_positive 2554 1 0
L2C_negative 2 47 0
L2C_neutral 9165 259 2 0 0 5
L2C Instructions Evicting Data 387
L2C Translations Evicting Data 2986
L2C Data Evicting Data 254679
L2C Instructions Evicting Instructions 0
L2C Translations Evicting Instructions 8
L2C Data Evicting Instructions 382
L2C Instructions Evicting Translations 3
L2C Translations Evicting Translations 45
L2C Data Evicting Translations 3005
L2C Dense regions hint from L2: 0
PSCL5 TOTAL     ACCESS:       2203  HIT:       2203  MISS:          0  HIT %:        100  MISS %:          0   MPKI: 0
PSCL5 LOAD TRANSLATION ACCESS:       2203  HIT:       2203  MISS:          0  HIT %:        100  MISS %:          0   MPKI: 0
PSCL5 PREFETCH  REQUESTED:          0  ISSUED:          0  USEFUL:          0  USELESS:          0
PSCL5 USEFUL LOAD PREFETCHES:          0 PREFETCH ISSUED TO LOWER LEVEL:          0  ACCURACY: -nan
PSCL5 TIMELY PREFETCHES:          0 LATE PREFETCHES: 0 DROPPED PREFETCHES: 0
PSCL5 PREFETCHES SAME FILL-ORIGIN LEVEL: 0 DIFFERENT FILL-ORIGIN LEVEL: 0

PSCL5_Dead_block_count 0 0
PSCL5_inaccurate_prefetch_count 0 0
Interactions: positive negative neutral
PSCL5_interactions 0 0 0
PSCL5_positive 0 0 0
PSCL5_negative 0 0 0
PSCL5_neutral 0 0 0 0 0 0
PSCL4 TOTAL     ACCESS:       2203  HIT:       2203  MISS:          0  HIT %:        100  MISS %:          0   MPKI: 0
PSCL4 LOAD TRANSLATION ACCESS:       2203  HIT:       2203  MISS:          0  HIT %:        100  MISS %:          0   MPKI: 0
PSCL4 PREFETCH  REQUESTED:          0  ISSUED:          0  USEFUL:          0  USELESS:          0
PSCL4 USEFUL LOAD PREFETCHES:          0 PREFETCH ISSUED TO LOWER LEVEL:          0  ACCURACY: -nan
PSCL4 TIMELY PREFETCHES:          0 LATE PREFETCHES: 0 DROPPED PREFETCHES: 0
PSCL4 PREFETCHES SAME FILL-ORIGIN LEVEL: 0 DIFFERENT FILL-ORIGIN LEVEL: 0

PSCL4_Dead_block_count 0 0
PSCL4_inaccurate_prefetch_count 0 0
Interactions: positive negative neutral
PSCL4_interactions 0 0 0
PSCL4_positive 0 0 0
PSCL4_negative 0 0 0
PSCL4_neutral 0 0 0 0 0 0
PSCL3 TOTAL     ACCESS:       2203  HIT:       2200  MISS:          3  HIT %:    99.8638  MISS %:   0.136178   MPKI: 6e-05
PSCL3 LOAD TRANSLATION ACCESS:       2203  HIT:       2200  MISS:          3  HIT %:    99.8638  MISS %:   0.136178   MPKI: 6e-05
PSCL3 PREFETCH  REQUESTED:          0  ISSUED:          0  USEFUL:          0  USELESS:          0
PSCL3 USEFUL LOAD PREFETCHES:          0 PREFETCH ISSUED TO LOWER LEVEL:          0  ACCURACY: -nan
PSCL3 TIMELY PREFETCHES:          0 LATE PREFETCHES: 0 DROPPED PREFETCHES: 0
PSCL3 PREFETCHES SAME FILL-ORIGIN LEVEL: 0 DIFFERENT FILL-ORIGIN LEVEL: 0

PSCL3_Dead_block_count 0 0
PSCL3_inaccurate_prefetch_count 0 0
Interactions: positive negative neutral
PSCL3_interactions 0 0 0
PSCL3_positive 0 0 0
PSCL3_negative 0 0 0
PSCL3_neutral 0 0 0 0 0 0
PSCL2 TOTAL     ACCESS:       2203  HIT:       1150  MISS:       1053  HIT %:    52.2015  MISS %:    47.7985   MPKI: 0.02106
PSCL2 LOAD TRANSLATION ACCESS:       2203  HIT:       1150  MISS:       1053  HIT %:    52.2015  MISS %:    47.7985   MPKI: 0.02106
PSCL2 PREFETCH  REQUESTED:          0  ISSUED:          0  USEFUL:          0  USELESS:          0
PSCL2 USEFUL LOAD PREFETCHES:          0 PREFETCH ISSUED TO LOWER LEVEL:          0  ACCURACY: -nan
PSCL2 TIMELY PREFETCHES:          0 LATE PREFETCHES: 0 DROPPED PREFETCHES: 0
PSCL2 PREFETCHES SAME FILL-ORIGIN LEVEL: 0 DIFFERENT FILL-ORIGIN LEVEL: 0

PSCL2_Dead_block_count 0 0
PSCL2_inaccurate_prefetch_count 0 0
Interactions: positive negative neutral
PSCL2_interactions 0 0 0
PSCL2_positive 0 0 0
PSCL2_negative 0 0 0
PSCL2_neutral 0 0 0 0 0 0
LLC TOTAL     ACCESS:     702739  HIT:     565781  MISS:     136958  HIT %:    80.5108  MISS %:    19.4892   MPKI: 2.73916
LLC LOAD      ACCESS:     216857  HIT:     193042  MISS:      23815  HIT %:    89.0181  MISS %:    10.9819   MPKI: 0.4763
LLC RFO       ACCESS:      29312  HIT:          7  MISS:      29305  HIT %:   0.023881  MISS %:    99.9761   MPKI: 0.5861
LLC PREFETCH  ACCESS:     424254  HIT:     340717  MISS:      83537  HIT %:    80.3097  MISS %:    19.6903   MPKI: 1.67074
LLC WRITEBACK ACCESS:      29277  HIT:      29271  MISS:          6  HIT %:    99.9795  MISS %:  0.0204939   MPKI: 0.00012
LLC LOAD TRANSLATION ACCESS:       3039  HIT:       2744  MISS:        295  HIT %:    90.2929  MISS %:    9.70714   MPKI: 0.0059
LLC PREFETCH  REQUESTED:          0  ISSUED:          0  USEFUL:      76513  USELESS:       6158
LLC USEFUL LOAD PREFETCHES:      76513 PREFETCH ISSUED TO LOWER LEVEL:      86513  ACCURACY: 88.441
LLC TIMELY PREFETCHES:      76513 LATE PREFETCHES: 2976 DROPPED PREFETCHES: 0
LLC PREFETCHES SAME FILL-ORIGIN LEVEL: 84309 DIFFERENT FILL-ORIGIN LEVEL: 0
LLC AVERAGE MISS LATENCY: 295.919 cycles
LLC RQ	ACCESS:     249208	FORWARD:          0	MERGED:          0	TO_CACHE:     249208
LLC WQ	ACCESS:      29277	FORWARD:          0	MERGED:          0	TO_CACHE:      29277
LLC PQ	ACCESS:     438027	FORWARD:          0	MERGED:       7515	TO_CACHE:     430512

LLC_Dead_block_count 23212 27227
LLC_inaccurate_prefetch_count 671 85842
Interactions: positive negative neutral
LLC_interactions 36119 1824 47970
LLC_positive 36111 4 4
LLC_negative 322 1416 86
LLC_neutral 42962 954 361 2 0 3691
LLC Dense regions hint to LLC: 0

RAW hits: 110787
Loads Generated: 19456873
Loads sent to L1D: 19346086
Stores Generated: 4004030
Stores sent to L1D: 4004028
Major fault: 0 Minor fault: 2913
Allocated PAGES: 2913
 All Calls: 4034702
 Critical Calls: 4034702
------------------
Depth Distribution
------------------
depth 0: 0
depth 1: 2847299
depth 2: 1181920
depth 3: 289923
depth 4: 57910
depth 5: 6854
depth 6: 314
depth 7: 0
depth 8: 0
depth 9: 0
depth 10: 0
depth 11: 0
depth 12: 0
depth 13: 0
depth 14: 0
depth 15: 0
depth 16: 0
depth 17: 0
depth 18: 0
depth 19: 0
depth 20: 0
depth 21: 0
depth 22: 0
depth 23: 0
depth 24: 0
depth 25: 0
depth 26: 0
depth 27: 0
depth 28: 0
depth 29: 0
Total: 4384220
-----------------------------
-----------------------------
	Captured at Filter
-----------------------------
depth 0: 0
depth 1: 652564
depth 2: 348173
depth 3: 158165
depth 4: 39337
depth 5: 10114
depth 6: 326
depth 7: 10
depth 8: 0
depth 9: 0
depth 10: 0
depth 11: 0
depth 12: 0
depth 13: 0
depth 14: 0
depth 15: 0
depth 16: 0
depth 17: 0
depth 18: 0
depth 19: 0
depth 20: 0
depth 21: 0
depth 22: 0
depth 23: 0
depth 24: 0
depth 25: 0
depth 26: 0
depth 27: 0
depth 28: 0
depth 29: 0
-----------------------------
-----------------------------
		Lost at Page
-----------------------------
depth 0: 0
depth 1: 413876
depth 2: 127363
depth 3: 15712
depth 4: 4595
depth 5: 1807
depth 6: 104
depth 7: 1
depth 8: 0
depth 9: 0
depth 10: 0
depth 11: 0
depth 12: 0
depth 13: 0
depth 14: 0
depth 15: 0
depth 16: 0
depth 17: 0
depth 18: 0
depth 19: 0
depth 20: 0
depth 21: 0
depth 22: 0
depth 23: 0
depth 24: 0
depth 25: 0
depth 26: 0
depth 27: 0
depth 28: 0
depth 29: 0
-----------------------------
-----------------------------
	Lost due to PQ Size
-----------------------------
232448
-----------------------------
ST read accesses: 3359718
ST write accesses: 1726
PT read accesses: 42682818
PT write accesses: 3980105
FILTER read accesses: 8465747
FILTER write accesses: 531324
GHR read accesses: 3155668
GHR write accesses: 466213
GHR counter read accesses: 38181252
GHR counter write accesses: 3642080
ST tag read accesses: 1296436464
ST tag write accesses: 267220694

DRAM Statistics
 CHANNEL 0
 RQ ROW_BUFFER_HIT:      72469  ROW_BUFFER_MISS:      64483
 DBUS_CONGESTED:        172
 WQ ROW_BUFFER_HIT:       9511  ROW_BUFFER_MISS:      19119  FULL:          0

 AVG_CONGESTED_CYCLE: 4
 All warmup complete: 2
Channel 0 Bank busy for read cycles: 0
Channel 0 Bank busy for write cycles: 0
Channel 0
Rank 0
0banks busy for read cycles: 44837672
0banks busy for write cycles: 13710
1banks busy for read cycles: 5597502
1banks busy for write cycles: 1878962
2banks busy for read cycles: 1320005
2banks busy for write cycles: 450124
3banks busy for read cycles: 550444
3banks busy for write cycles: 209406
4banks busy for read cycles: 265430
4banks busy for write cycles: 132526
5banks busy for read cycles: 140860
5banks busy for write cycles: 77801
6banks busy for read cycles: 105924
6banks busy for write cycles: 53138
7banks busy for read cycles: 77384
7banks busy for write cycles: 26164
8banks busy for read cycles: 58218
8banks busy for write cycles: 16889

CPU 0 Branch Prediction Accuracy: 99.8501% MPKI: 0.01334 Average ROB Occupancy at Mispredict: 12.078
Branch types
NOT_BRANCH: 49554649 99.1093%
BRANCH_DIRECT_JUMP: 54418 0.108836%
BRANCH_INDIRECT: 9044 0.018088%
BRANCH_CONDITIONAL: 272973 0.545946%
BRANCH_DIRECT_CALL: 54297 0.108594%
BRANCH_INDIRECT_CALL: 0 0%
BRANCH_RETURN: 54297 0.108594%
BRANCH_OTHER: 0 0%

@sumon_overall_L1D         0         0         0         0         0         0         0
@Sumon_Early_by_class_L1D         0         0         0         0
@Sumon_Late_by_class_L1D         0         0         0         0

@Sumon_Early_by_cycle_L1D         0         0         0         0         0         0         0         0         0         0         0         0
@Sumon_Late_by_cycle_L1D         0         0         0         0         0         0
@Sumon_Early_stream_L1D         0         0         0         0         0         0         0         0         0         0         0         0
@Sumon_Early_CS_L1D         0         0         0         0         0         0         0         0         0         0         0         0
@Sumon_Early_CPLX_L1D         0         0         0         0         0         0         0         0         0         0         0         0
@Sumon_Late_stream_L1D         0         0         0         0         0         0
@Sumon_Late_CS_L1D         0         0         0         0         0         0
@Sumon_Late_CPLX_L1D         0         0         0         0         0         0
@sumon_overall_L2C     11438       559         0       312     11728   3706164   3870790
@Sumon_Early_by_class_L2C         0         0         0         0
@Sumon_Late_by_class_L2C         0         0         0         0

@Sumon_Early_by_cycle_L2C       875       229        18         1         0         5         1        78       824      7951      1380        76
@Sumon_Late_by_cycle_L2C       176       301        50         7        25         0
@Sumon_Early_stream_L2C         0         0         0         0         0         0         0         0         0         0         0         0
@Sumon_Early_CS_L2C         0         0         0         0         0         0         0         0         0         0         0         0
@Sumon_Early_CPLX_L2C         0         0         0         0         0         0         0         0         0         0         0         0
@Sumon_Late_stream_L2C         0         0         0         0         0         0
@Sumon_Late_CS_L2C         0         0         0         0         0         0
@Sumon_Late_CPLX_L2C         0         0         0         0         0         0
DRAM PAGES: 1048576
Allocated PAGES: 2913
