Initialize SIGNATURE TABLE
ST_SET: 1
ST_WAY: 256
ST_TAG_BIT: 16
ST_TAG_MASK: ffff

Initialize PATTERN TABLE
PT_SET: 512
PT_WAY: 4
SIG_DELTA_BIT: 7
C_SIG_BIT: 4
C_DELTA_BIT: 4

Initialize PREFETCH FILTER
FILTER_SET: 1024

*** ChampSim Multicore Out-of-Order Simulator ***

Warmup Instructions: 10000000
Simulation Instructions: 50000000
Number of CPUs: 1
LLC sets: 2048
LLC ways: 16
Off-chip DRAM Size: 4096 MB Channels: 1 Width: 64-bit Data Rate: 6400 MT/s
CPU 0 runs traces/SPEC2017/623.xalancbmk_s-10B.champsimtrace.xz
.xz
CPU 0 Bimodal branch predictor
BTB has LRU replacement policy
ITLB has LRU replacement policy
DTLB has LRU replacement policy
STLB has LRU replacement policy
L1I has LRU replacement policy
L1D has LRU replacement policy
ST_WAYS: 256
PT_SETS: 512
L2C has LRU replacement policy
LLC has LRU replacement policy
Heartbeat CPU 0 instructions: 10000002 cycles: 3133394 heartbeat IPC: 3.19143 cumulative IPC: 3.19143 (Simulation time: 0 hr 7 min 54 sec) 

Warmup complete CPU 0 instructions: 10000002 cycles: 3133394 (Simulation time: 0 hr 7 min 54 sec) 

Heartbeat CPU 0 instructions: 20000000 cycles: 42716036 heartbeat IPC: 0.252636 cumulative IPC: 0.252636 (Simulation time: 0 hr 19 min 17 sec) 
Heartbeat CPU 0 instructions: 30000001 cycles: 81746742 heartbeat IPC: 0.256209 cumulative IPC: 0.25441 (Simulation time: 0 hr 30 min 28 sec) 
Heartbeat CPU 0 instructions: 40000000 cycles: 118637211 heartbeat IPC: 0.271073 cumulative IPC: 0.259732 (Simulation time: 0 hr 41 min 39 sec) 
Heartbeat CPU 0 instructions: 50000000 cycles: 160570686 heartbeat IPC: 0.238473 cumulative IPC: 0.254069 (Simulation time: 0 hr 52 min 39 sec) 
Heartbeat CPU 0 instructions: 60000001 cycles: 199750438 heartbeat IPC: 0.255234 cumulative IPC: 0.254301 (Simulation time: 0 hr 59 min 41 sec) 
Finished CPU 0 instructions: 50000003 cycles: 196617045 cumulative IPC: 0.254301 (Simulation time: 0 hr 59 min 41 sec) 

ChampSim completed all CPUs

Region of Interest Statistics

CPU 0 cumulative IPC: 0.254301 instructions: 50000003 cycles: 196617045
ITLB TOTAL     ACCESS:    7745999  HIT:    7716091  MISS:      29908  HIT %:    99.6139  MISS %:   0.386109   MPKI: 0.59816
ITLB LOAD TRANSLATION ACCESS:    7745999  HIT:    7716091  MISS:      29908  HIT %:    99.6139  MISS %:   0.386109   MPKI: 0.59816
ITLB PREFETCH  REQUESTED:          0  ISSUED:          0  USEFUL:          0  USELESS:          0
ITLB USEFUL LOAD PREFETCHES:          0 PREFETCH ISSUED TO LOWER LEVEL:          0  ACCURACY: -nan
ITLB TIMELY PREFETCHES:          0 LATE PREFETCHES: 0 DROPPED PREFETCHES: 0
ITLB PREFETCHES SAME FILL-ORIGIN LEVEL: 0 DIFFERENT FILL-ORIGIN LEVEL: 0
ITLB AVERAGE MISS LATENCY: 19.7087 cycles
ITLB RQ	ACCESS:    8912284	FORWARD:          0	MERGED:    1159291	TO_CACHE:    7752993

ITLB_Dead_block_count 29904 4
ITLB_inaccurate_prefetch_count 0 0
Interactions: positive negative neutral
ITLB_interactions 0 0 0
ITLB_positive 0 0 0
ITLB_negative 0 0 0
ITLB_neutral 0 0 0 0 0 0
DTLB TOTAL     ACCESS:   10287903  HIT:    9946818  MISS:     341085  HIT %:    96.6846  MISS %:     3.3154   MPKI: 6.8217
DTLB LOAD TRANSLATION ACCESS:   10287903  HIT:    9946818  MISS:     341085  HIT %:    96.6846  MISS %:     3.3154   MPKI: 6.8217
DTLB PREFETCH  REQUESTED:          0  ISSUED:          0  USEFUL:          0  USELESS:          0
DTLB USEFUL LOAD PREFETCHES:          0 PREFETCH ISSUED TO LOWER LEVEL:          0  ACCURACY: -nan
DTLB TIMELY PREFETCHES:          0 LATE PREFETCHES: 0 DROPPED PREFETCHES: 0
DTLB PREFETCHES SAME FILL-ORIGIN LEVEL: 0 DIFFERENT FILL-ORIGIN LEVEL: 0
DTLB AVERAGE MISS LATENCY: 70.0112 cycles
DTLB RQ	ACCESS:   11365887	FORWARD:          0	MERGED:    1027375	TO_CACHE:   10338512

DTLB_Dead_block_count 341081 4
DTLB_inaccurate_prefetch_count 0 0
Interactions: positive negative neutral
DTLB_interactions 0 0 0
DTLB_positive 0 0 0
DTLB_negative 0 0 0
DTLB_neutral 0 0 0 0 0 0
STLB TOTAL     ACCESS:     370993  HIT:     107472  MISS:     263521  HIT %:    28.9687  MISS %:    71.0313   MPKI: 5.27042
STLB LOAD TRANSLATION ACCESS:     370993  HIT:     107472  MISS:     263521  HIT %:    28.9687  MISS %:    71.0313   MPKI: 5.27042
STLB PREFETCH  REQUESTED:          0  ISSUED:          0  USEFUL:          0  USELESS:          0
STLB USEFUL LOAD PREFETCHES:          0 PREFETCH ISSUED TO LOWER LEVEL:          0  ACCURACY: -nan
STLB TIMELY PREFETCHES:          0 LATE PREFETCHES: 0 DROPPED PREFETCHES: 0
STLB PREFETCHES SAME FILL-ORIGIN LEVEL: 0 DIFFERENT FILL-ORIGIN LEVEL: 0
STLB AVERAGE MISS LATENCY: 80.1412 cycles
STLB RQ	ACCESS:     370993	FORWARD:          0	MERGED:          0	TO_CACHE:     370993

STLB_Dead_block_count 263517 4
STLB_inaccurate_prefetch_count 0 0
Interactions: positive negative neutral
STLB_interactions 0 0 0
STLB_positive 0 0 0
STLB_negative 0 0 0
STLB_neutral 0 0 0 0 0 0
STLB Hit, L1D data hit: 0
STLB Hit, L2C data hit: 0
STLB Hit, LLC data hit: 0
STLB Hit, LLC data miss: 0
STLB STLB hints to L2: 0
L1D TOTAL     ACCESS:   11268013  HIT:    9879032  MISS:    1388981  HIT %:    87.6732  MISS %:    12.3268   MPKI: 27.7796
L1D LOAD      ACCESS:    9039318  HIT:    7669042  MISS:    1370276  HIT %:    84.8409  MISS %:    15.1591   MPKI: 27.4055
L1D RFO       ACCESS:    2228695  HIT:    2209990  MISS:      18705  HIT %:    99.1607  MISS %:    0.83928   MPKI: 0.3741
L1D PREFETCH  REQUESTED:          0  ISSUED:          0  USEFUL:          0  USELESS:          0
L1D USEFUL LOAD PREFETCHES:          0 PREFETCH ISSUED TO LOWER LEVEL:          0  ACCURACY: -nan
L1D TIMELY PREFETCHES:          0 LATE PREFETCHES: 0 DROPPED PREFETCHES: 0
L1D PREFETCHES SAME FILL-ORIGIN LEVEL: 0 DIFFERENT FILL-ORIGIN LEVEL: 0
L1D AVERAGE MISS LATENCY: 118.563 cycles
L1D RQ	ACCESS:   14736885	FORWARD:          0	MERGED:    5591783	TO_CACHE:    9088412
L1D WQ	ACCESS:    2303184	FORWARD:      56690	MERGED:      25709	TO_CACHE:    2277475

L1D_Dead_block_count 11771 1358507
L1D_inaccurate_prefetch_count 0 0
Interactions: positive negative neutral
L1D_interactions 0 0 0
L1D_positive 0 0 0
L1D_negative 0 0 0
L1D_neutral 0 0 0 0 0 0
L1D UNIQUE REGIONS ACCESSED: 0
L1D REGIONS CONFLICTS: 0
L1D Cross Page Prefetch Requests: 0
L1D Same Page Prefetch Requests: 0
L1D ROI Sum of L1D PQ occupancy: 0
L1D PREFETCHES PUSHED FROM L2C: 0
L1I TOTAL     ACCESS:    8864504  HIT:    8693157  MISS:     171347  HIT %:     98.067  MISS %:    1.93296   MPKI: 3.42694
L1I LOAD      ACCESS:    8864504  HIT:    8693157  MISS:     171347  HIT %:     98.067  MISS %:    1.93296   MPKI: 3.42694
L1I PREFETCH  REQUESTED:          0  ISSUED:          0  USEFUL:          0  USELESS:          0
L1I USEFUL LOAD PREFETCHES:          0 PREFETCH ISSUED TO LOWER LEVEL:          0  ACCURACY: -nan
L1I TIMELY PREFETCHES:          0 LATE PREFETCHES: 0 DROPPED PREFETCHES: 0
L1I PREFETCHES SAME FILL-ORIGIN LEVEL: 0 DIFFERENT FILL-ORIGIN LEVEL: 0
L1I AVERAGE MISS LATENCY: 40.5506 cycles
L1I RQ	ACCESS:   15117479	FORWARD:          0	MERGED:    6205195	TO_CACHE:    8912284

L1I_Dead_block_count 171343 4
L1I_inaccurate_prefetch_count 0 0
Interactions: positive negative neutral
L1I_interactions 0 0 0
L1I_positive 0 0 0
L1I_negative 0 0 0
L1I_neutral 0 0 0 0 0 0
BTB TOTAL     ACCESS:    8242338  HIT:    8167686  MISS:      74652  HIT %:    99.0943  MISS %:   0.905714   MPKI: 1.49304
BTB BRANCH_DIRECT_JUMP	ACCESS:     118676  HIT:     118023  MISS:        653
BTB BRANCH_INDIRECT	ACCESS:      21952  HIT:       8655  MISS:      13297
BTB BRANCH_CONDITIONAL	ACCESS:    6931274  HIT:    6928562  MISS:       2712
BTB BRANCH_DIRECT_CALL	ACCESS:     319784  HIT:     318786  MISS:        998
BTB BRANCH_INDIRECT_CALL	ACCESS:     265434  HIT:     262598  MISS:       2836
BTB BRANCH_RETURN	ACCESS:     585218  HIT:     531062  MISS:      54156
BTB BRANCH_OTHER ACCESS:          0  HIT:          0  MISS:          0

L2C TOTAL     ACCESS:    1949766  HIT:     596396  MISS:    1353370  HIT %:    30.5881  MISS %:    69.4119   MPKI: 27.0674
L2C LOAD      ACCESS:    1541623  HIT:     281228  MISS:    1260395  HIT %:    18.2423  MISS %:    81.7577   MPKI: 25.2079
L2C DATA LOAD MPKI: 24.5501
L2C INSTRUCTION LOAD MPKI: 0.65776
L2C RFO       ACCESS:      18704  HIT:       6572  MISS:      12132  HIT %:    35.1369  MISS %:    64.8631   MPKI: 0.24264
L2C PREFETCH  ACCESS:      88624  HIT:      70590  MISS:      18034  HIT %:    79.6511  MISS %:    20.3489   MPKI: 0.36068
L2C DATA PREFETCH MPKI: 0.36068
L2C INSTRUCTION PREFETCH MPKI: 0
L2C WRITEBACK ACCESS:      36130  HIT:      35963  MISS:        167  HIT %:    99.5378  MISS %:    0.46222   MPKI: 0.00334
L2C LOAD TRANSLATION ACCESS:     264685  HIT:     202043  MISS:      62642  HIT %:    76.3334  MISS %:    23.6666   MPKI: 1.25284
L2C PREFETCH  REQUESTED:    1058594  ISSUED:    1058594  USEFUL:      13970  USELESS:       4068
L2C USEFUL LOAD PREFETCHES:      13970 PREFETCH ISSUED TO LOWER LEVEL:     766715  ACCURACY: 1.82206
L2C TIMELY PREFETCHES:      13970 LATE PREFETCHES: 9053 DROPPED PREFETCHES: 0
L2C PREFETCHES SAME FILL-ORIGIN LEVEL: 27087 DIFFERENT FILL-ORIGIN LEVEL: 739628
L2C AVERAGE MISS LATENCY: 119.75 cycles
L2C RQ	ACCESS:    1825015	FORWARD:          0	MERGED:          0	TO_CACHE:    1825014
L2C WQ	ACCESS:      36130	FORWARD:          1	MERGED:          0	TO_CACHE:      36130
L2C PQ	ACCESS:    1058594	FORWARD:          0	MERGED:      63892	TO_CACHE:     994702

L2C_Dead_block_count 1270466 55652
L2C_inaccurate_prefetch_count 24384 742331
Interactions: positive negative neutral
L2C_interactions 17176 3842 1017
L2C_positive 17172 3 1
L2C_negative 5 3837 0
L2C_neutral 698 142 92 19 0 66
L2C Instructions Evicting Data 30880
L2C Translations Evicting Data 58075
L2C Data Evicting Data 1167746
L2C Instructions Evicting Instructions 834
L2C Translations Evicting Instructions 1365
L2C Data Evicting Instructions 31660
L2C Instructions Evicting Translations 1174
L2C Translations Evicting Translations 3202
L2C Data Evicting Translations 58267
L2C Dense regions hint from L2: 0
PSCL5 TOTAL     ACCESS:     263521  HIT:     263521  MISS:          0  HIT %:        100  MISS %:          0   MPKI: 0
PSCL5 LOAD TRANSLATION ACCESS:     263521  HIT:     263521  MISS:          0  HIT %:        100  MISS %:          0   MPKI: 0
PSCL5 PREFETCH  REQUESTED:          0  ISSUED:          0  USEFUL:          0  USELESS:          0
PSCL5 USEFUL LOAD PREFETCHES:          0 PREFETCH ISSUED TO LOWER LEVEL:          0  ACCURACY: -nan
PSCL5 TIMELY PREFETCHES:          0 LATE PREFETCHES: 0 DROPPED PREFETCHES: 0
PSCL5 PREFETCHES SAME FILL-ORIGIN LEVEL: 0 DIFFERENT FILL-ORIGIN LEVEL: 0

PSCL5_Dead_block_count 0 0
PSCL5_inaccurate_prefetch_count 0 0
Interactions: positive negative neutral
PSCL5_interactions 0 0 0
PSCL5_positive 0 0 0
PSCL5_negative 0 0 0
PSCL5_neutral 0 0 0 0 0 0
PSCL4 TOTAL     ACCESS:     263521  HIT:     263521  MISS:          0  HIT %:        100  MISS %:          0   MPKI: 0
PSCL4 LOAD TRANSLATION ACCESS:     263521  HIT:     263521  MISS:          0  HIT %:        100  MISS %:          0   MPKI: 0
PSCL4 PREFETCH  REQUESTED:          0  ISSUED:          0  USEFUL:          0  USELESS:          0
PSCL4 USEFUL LOAD PREFETCHES:          0 PREFETCH ISSUED TO LOWER LEVEL:          0  ACCURACY: -nan
PSCL4 TIMELY PREFETCHES:          0 LATE PREFETCHES: 0 DROPPED PREFETCHES: 0
PSCL4 PREFETCHES SAME FILL-ORIGIN LEVEL: 0 DIFFERENT FILL-ORIGIN LEVEL: 0

PSCL4_Dead_block_count 0 0
PSCL4_inaccurate_prefetch_count 0 0
Interactions: positive negative neutral
PSCL4_interactions 0 0 0
PSCL4_positive 0 0 0
PSCL4_negative 0 0 0
PSCL4_neutral 0 0 0 0 0 0
PSCL3 TOTAL     ACCESS:     263521  HIT:     263521  MISS:          0  HIT %:        100  MISS %:          0   MPKI: 0
PSCL3 LOAD TRANSLATION ACCESS:     263521  HIT:     263521  MISS:          0  HIT %:        100  MISS %:          0   MPKI: 0
PSCL3 PREFETCH  REQUESTED:          0  ISSUED:          0  USEFUL:          0  USELESS:          0
PSCL3 USEFUL LOAD PREFETCHES:          0 PREFETCH ISSUED TO LOWER LEVEL:          0  ACCURACY: -nan
PSCL3 TIMELY PREFETCHES:          0 LATE PREFETCHES: 0 DROPPED PREFETCHES: 0
PSCL3 PREFETCHES SAME FILL-ORIGIN LEVEL: 0 DIFFERENT FILL-ORIGIN LEVEL: 0

PSCL3_Dead_block_count 0 0
PSCL3_inaccurate_prefetch_count 0 0
Interactions: positive negative neutral
PSCL3_interactions 0 0 0
PSCL3_positive 0 0 0
PSCL3_negative 0 0 0
PSCL3_neutral 0 0 0 0 0 0
PSCL2 TOTAL     ACCESS:     263521  HIT:     262357  MISS:       1164  HIT %:    99.5583  MISS %:   0.441711   MPKI: 0.02328
PSCL2 LOAD TRANSLATION ACCESS:     263521  HIT:     262357  MISS:       1164  HIT %:    99.5583  MISS %:   0.441711   MPKI: 0.02328
PSCL2 PREFETCH  REQUESTED:          0  ISSUED:          0  USEFUL:          0  USELESS:          0
PSCL2 USEFUL LOAD PREFETCHES:          0 PREFETCH ISSUED TO LOWER LEVEL:          0  ACCURACY: -nan
PSCL2 TIMELY PREFETCHES:          0 LATE PREFETCHES: 0 DROPPED PREFETCHES: 0
PSCL2 PREFETCHES SAME FILL-ORIGIN LEVEL: 0 DIFFERENT FILL-ORIGIN LEVEL: 0

PSCL2_Dead_block_count 0 0
PSCL2_inaccurate_prefetch_count 0 0
Interactions: positive negative neutral
PSCL2_interactions 0 0 0
PSCL2_positive 0 0 0
PSCL2_negative 0 0 0
PSCL2_neutral 0 0 0 0 0 0
LLC TOTAL     ACCESS:    2060941  HIT:     357681  MISS:    1703260  HIT %:    17.3552  MISS %:    82.6448   MPKI: 34.0652
LLC LOAD      ACCESS:    1251342  HIT:     222594  MISS:    1028748  HIT %:    17.7884  MISS %:    82.2116   MPKI: 20.575
LLC RFO       ACCESS:      12132  HIT:       1443  MISS:      10689  HIT %:    11.8942  MISS %:    88.1058   MPKI: 0.21378
LLC PREFETCH  ACCESS:     715085  HIT:     112487  MISS:     602598  HIT %:    15.7306  MISS %:    84.2694   MPKI: 12.052
LLC WRITEBACK ACCESS:      19740  HIT:      19654  MISS:         86  HIT %:    99.5643  MISS %:   0.435664   MPKI: 0.00172
LLC LOAD TRANSLATION ACCESS:      62642  HIT:       1503  MISS:      61139  HIT %:    2.39935  MISS %:    97.6007   MPKI: 1.22278
LLC PREFETCH  REQUESTED:          0  ISSUED:          0  USEFUL:     183567  USELESS:     419568
LLC USEFUL LOAD PREFETCHES:     183567 PREFETCH ISSUED TO LOWER LEVEL:     634470  ACCURACY: 28.9323
LLC TIMELY PREFETCHES:     183567 LATE PREFETCHES: 31871 DROPPED PREFETCHES: 0
LLC PREFETCHES SAME FILL-ORIGIN LEVEL: 617466 DIFFERENT FILL-ORIGIN LEVEL: 0
LLC AVERAGE MISS LATENCY: 108.733 cycles
LLC RQ	ACCESS:    1326118	FORWARD:          0	MERGED:          0	TO_CACHE:    1326118
LLC WQ	ACCESS:      19740	FORWARD:          0	MERGED:          0	TO_CACHE:      19740
LLC PQ	ACCESS:     766715	FORWARD:          0	MERGED:       1786	TO_CACHE:     764929

LLC_Dead_block_count 879314 189393
LLC_inaccurate_prefetch_count 275214 359256
Interactions: positive negative neutral
LLC_interactions 285991 180594 406881
LLC_positive 247179 707 38105
LLC_negative 1194 142916 36484
LLC_neutral 1527 822 204016 126423 31778 42315
LLC Dense regions hint to LLC: 0

RAW hits: 59406
Loads Generated: 14796291
Loads sent to L1D: 14736885
Stores Generated: 2303186
Stores sent to L1D: 2303184
Major fault: 0 Minor fault: 10925
Allocated PAGES: 10925
 All Calls: 1645353
 Critical Calls: 1645353
------------------
Depth Distribution
------------------
depth 0: 0
depth 1: 1112781
depth 2: 162150
depth 3: 23004
depth 4: 5470
depth 5: 1483
depth 6: 732
depth 7: 250
depth 8: 87
depth 9: 0
depth 10: 0
depth 11: 0
depth 12: 0
depth 13: 0
depth 14: 0
depth 15: 0
depth 16: 0
depth 17: 0
depth 18: 0
depth 19: 0
depth 20: 0
depth 21: 0
depth 22: 0
depth 23: 0
depth 24: 0
depth 25: 0
depth 26: 0
depth 27: 0
depth 28: 0
depth 29: 0
Total: 1305957
-----------------------------
-----------------------------
	Captured at Filter
-----------------------------
depth 0: 0
depth 1: 2258
depth 2: 342
depth 3: 173
depth 4: 67
depth 5: 6
depth 6: 2
depth 7: 1
depth 8: 0
depth 9: 0
depth 10: 0
depth 11: 0
depth 12: 0
depth 13: 0
depth 14: 0
depth 15: 0
depth 16: 0
depth 17: 0
depth 18: 0
depth 19: 0
depth 20: 0
depth 21: 0
depth 22: 0
depth 23: 0
depth 24: 0
depth 25: 0
depth 26: 0
depth 27: 0
depth 28: 0
depth 29: 0
-----------------------------
-----------------------------
		Lost at Page
-----------------------------
depth 0: 0
depth 1: 22051
depth 2: 3375
depth 3: 1164
depth 4: 476
depth 5: 134
depth 6: 84
depth 7: 35
depth 8: 13
depth 9: 0
depth 10: 0
depth 11: 0
depth 12: 0
depth 13: 0
depth 14: 0
depth 15: 0
depth 16: 0
depth 17: 0
depth 18: 0
depth 19: 0
depth 20: 0
depth 21: 0
depth 22: 0
depth 23: 0
depth 24: 0
depth 25: 0
depth 26: 0
depth 27: 0
depth 28: 0
depth 29: 0
-----------------------------
-----------------------------
	Lost due to PQ Size
-----------------------------
143
-----------------------------
ST read accesses: 1088311
ST write accesses: 281967
PT read accesses: 14678289
PT write accesses: 1340174
FILTER read accesses: 3784425
FILTER write accesses: 1433898
GHR read accesses: 2421251
GHR write accesses: 21500
GHR counter read accesses: 12258268
GHR counter write accesses: 1436269
ST tag read accesses: 671335035
ST tag write accesses: 77300940

DRAM Statistics
 CHANNEL 0
 RQ ROW_BUFFER_HIT:    1126486  ROW_BUFFER_MISS:     576688
 DBUS_CONGESTED:        636
 WQ ROW_BUFFER_HIT:       1202  ROW_BUFFER_MISS:      15537  FULL:          0

 AVG_CONGESTED_CYCLE: 5
 All warmup complete: 2
Channel 0 Bank busy for read cycles: 0
Channel 0 Bank busy for write cycles: 0
Channel 0
Rank 0
0banks busy for read cycles: 120286232
0banks busy for write cycles: 13616
1banks busy for read cycles: 36692087
1banks busy for write cycles: 2394969
2banks busy for read cycles: 19002073
2banks busy for write cycles: 381825
3banks busy for read cycles: 8148647
3banks busy for write cycles: 62401
4banks busy for read cycles: 5762738
4banks busy for write cycles: 13029
5banks busy for read cycles: 2797795
5banks busy for write cycles: 1493
6banks busy for read cycles: 820543
6banks busy for write cycles: 0
7banks busy for read cycles: 190189
7banks busy for write cycles: 0
8banks busy for read cycles: 49409
8banks busy for write cycles: 0

CPU 0 Branch Prediction Accuracy: 94.93% MPKI: 13.2206 Average ROB Occupancy at Mispredict: 36.8798
Branch types
NOT_BRANCH: 36961542 73.9231%
BRANCH_DIRECT_JUMP: 118676 0.237352%
BRANCH_INDIRECT: 21952 0.043904%
BRANCH_CONDITIONAL: 11727055 23.4541%
BRANCH_DIRECT_CALL: 319784 0.639568%
BRANCH_INDIRECT_CALL: 265434 0.530868%
BRANCH_RETURN: 585218 1.17044%
BRANCH_OTHER: 0 0%

@sumon_overall_L1D         0         0         0         0         0         0         0
@Sumon_Early_by_class_L1D         0         0         0         0
@Sumon_Late_by_class_L1D         0         0         0         0

@Sumon_Early_by_cycle_L1D         0         0         0         0         0         0         0         0         0         0         0         0
@Sumon_Late_by_cycle_L1D         0         0         0         0         0         0
@Sumon_Early_stream_L1D         0         0         0         0         0         0         0         0         0         0         0         0
@Sumon_Early_CS_L1D         0         0         0         0         0         0         0         0         0         0         0         0
@Sumon_Early_CPLX_L1D         0         0         0         0         0         0         0         0         0         0         0         0
@Sumon_Late_stream_L1D         0         0         0         0         0         0
@Sumon_Late_CS_L1D         0         0         0         0         0         0
@Sumon_Late_CPLX_L1D         0         0         0         0         0         0
@sumon_overall_L2C     13970      9053         0      4068     18034   1058594   1058594
@Sumon_Early_by_class_L2C         0         0         0         0
@Sumon_Late_by_class_L2C         0         0         0         0

@Sumon_Early_by_cycle_L2C      7996      1606       548        25        17       477       178      2960        43        68        16        36
@Sumon_Late_by_cycle_L2C      3075      2004       961      1568      1445         0
@Sumon_Early_stream_L2C         0         0         0         0         0         0         0         0         0         0         0         0
@Sumon_Early_CS_L2C         0         0         0         0         0         0         0         0         0         0         0         0
@Sumon_Early_CPLX_L2C         0         0         0         0         0         0         0         0         0         0         0         0
@Sumon_Late_stream_L2C         0         0         0         0         0         0
@Sumon_Late_CS_L2C         0         0         0         0         0         0
@Sumon_Late_CPLX_L2C         0         0         0         0         0         0
DRAM PAGES: 1048576
Allocated PAGES: 10925
