Initialize SIGNATURE TABLE
ST_SET: 1
ST_WAY: 256
ST_TAG_BIT: 16
ST_TAG_MASK: ffff

Initialize PATTERN TABLE
PT_SET: 512
PT_WAY: 4
SIG_DELTA_BIT: 7
C_SIG_BIT: 4
C_DELTA_BIT: 4

Initialize PREFETCH FILTER
FILTER_SET: 1024

*** ChampSim Multicore Out-of-Order Simulator ***

Warmup Instructions: 10000000
Simulation Instructions: 50000000
Number of CPUs: 1
LLC sets: 2048
LLC ways: 16
Off-chip DRAM Size: 4096 MB Channels: 1 Width: 64-bit Data Rate: 6400 MT/s
CPU 0 runs traces/SPEC2017/649.fotonik3d_s-8225B.champsimtrace.xz
.xz
CPU 0 Bimodal branch predictor
BTB has LRU replacement policy
ITLB has LRU replacement policy
DTLB has LRU replacement policy
STLB has LRU replacement policy
L1I has LRU replacement policy
L1D has LRU replacement policy
ST_WAYS: 256
PT_SETS: 512
L2C has LRU replacement policy
LLC has LRU replacement policy
Heartbeat CPU 0 instructions: 10000001 cycles: 2912224 heartbeat IPC: 3.4338 cumulative IPC: 3.4338 (Simulation time: 0 hr 7 min 39 sec) 

Warmup complete CPU 0 instructions: 10000001 cycles: 2912224 (Simulation time: 0 hr 7 min 39 sec) 

Heartbeat CPU 0 instructions: 20000001 cycles: 12904089 heartbeat IPC: 1.00081 cumulative IPC: 1.00081 (Simulation time: 0 hr 16 min 10 sec) 
Heartbeat CPU 0 instructions: 30000002 cycles: 22888020 heartbeat IPC: 1.00161 cumulative IPC: 1.00121 (Simulation time: 0 hr 24 min 48 sec) 
Heartbeat CPU 0 instructions: 40000002 cycles: 32873858 heartbeat IPC: 1.00142 cumulative IPC: 1.00128 (Simulation time: 0 hr 33 min 26 sec) 
Heartbeat CPU 0 instructions: 50000003 cycles: 42856889 heartbeat IPC: 1.0017 cumulative IPC: 1.00139 (Simulation time: 0 hr 42 min 1 sec) 
Heartbeat CPU 0 instructions: 60000000 cycles: 52839692 heartbeat IPC: 1.00172 cumulative IPC: 1.00145 (Simulation time: 0 hr 50 min 22 sec) 
Finished CPU 0 instructions: 50000003 cycles: 49927469 cumulative IPC: 1.00145 (Simulation time: 0 hr 50 min 22 sec) 

ChampSim completed all CPUs

Region of Interest Statistics

CPU 0 cumulative IPC: 1.00145 instructions: 50000003 cycles: 49927469
ITLB TOTAL     ACCESS:    7017751  HIT:    7017751  MISS:          0  HIT %:        100  MISS %:          0   MPKI: 0
ITLB LOAD TRANSLATION ACCESS:    7017751  HIT:    7017751  MISS:          0  HIT %:        100  MISS %:          0   MPKI: 0
ITLB PREFETCH  REQUESTED:          0  ISSUED:          0  USEFUL:          0  USELESS:          0
ITLB USEFUL LOAD PREFETCHES:          0 PREFETCH ISSUED TO LOWER LEVEL:          0  ACCURACY: -nan
ITLB TIMELY PREFETCHES:          0 LATE PREFETCHES: 0 DROPPED PREFETCHES: 0
ITLB PREFETCHES SAME FILL-ORIGIN LEVEL: 0 DIFFERENT FILL-ORIGIN LEVEL: 0
ITLB AVERAGE MISS LATENCY: -nan cycles
ITLB RQ	ACCESS:    8772823	FORWARD:          0	MERGED:    1755072	TO_CACHE:    7017751

ITLB_Dead_block_count 0 0
ITLB_inaccurate_prefetch_count 0 0
Interactions: positive negative neutral
ITLB_interactions 0 0 0
ITLB_positive 0 0 0
ITLB_negative 0 0 0
ITLB_neutral 0 0 0 0 0 0
DTLB TOTAL     ACCESS:    7817327  HIT:    7805535  MISS:      11792  HIT %:    99.8492  MISS %:   0.150844   MPKI: 0.23584
DTLB LOAD TRANSLATION ACCESS:    7817327  HIT:    7805535  MISS:      11792  HIT %:    99.8492  MISS %:   0.150844   MPKI: 0.23584
DTLB PREFETCH  REQUESTED:          0  ISSUED:          0  USEFUL:          0  USELESS:          0
DTLB USEFUL LOAD PREFETCHES:          0 PREFETCH ISSUED TO LOWER LEVEL:          0  ACCURACY: -nan
DTLB TIMELY PREFETCHES:          0 LATE PREFETCHES: 0 DROPPED PREFETCHES: 0
DTLB PREFETCHES SAME FILL-ORIGIN LEVEL: 0 DIFFERENT FILL-ORIGIN LEVEL: 0
DTLB AVERAGE MISS LATENCY: 88.5778 cycles
DTLB RQ	ACCESS:   12256610	FORWARD:          0	MERGED:    4438585	TO_CACHE:    7818025

DTLB_Dead_block_count 11788 4
DTLB_inaccurate_prefetch_count 0 0
Interactions: positive negative neutral
DTLB_interactions 0 0 0
DTLB_positive 0 0 0
DTLB_negative 0 0 0
DTLB_neutral 0 0 0 0 0 0
STLB TOTAL     ACCESS:      11792  HIT:       4934  MISS:       6858  HIT %:    41.8419  MISS %:    58.1581   MPKI: 0.13716
STLB LOAD TRANSLATION ACCESS:      11792  HIT:       4934  MISS:       6858  HIT %:    41.8419  MISS %:    58.1581   MPKI: 0.13716
STLB PREFETCH  REQUESTED:          0  ISSUED:          0  USEFUL:          0  USELESS:          0
STLB USEFUL LOAD PREFETCHES:          0 PREFETCH ISSUED TO LOWER LEVEL:          0  ACCURACY: -nan
STLB TIMELY PREFETCHES:          0 LATE PREFETCHES: 0 DROPPED PREFETCHES: 0
STLB PREFETCHES SAME FILL-ORIGIN LEVEL: 0 DIFFERENT FILL-ORIGIN LEVEL: 0
STLB AVERAGE MISS LATENCY: 136.608 cycles
STLB RQ	ACCESS:      11792	FORWARD:          0	MERGED:          0	TO_CACHE:      11792

STLB_Dead_block_count 6854 4
STLB_inaccurate_prefetch_count 0 0
Interactions: positive negative neutral
STLB_interactions 0 0 0
STLB_positive 0 0 0
STLB_negative 0 0 0
STLB_neutral 0 0 0 0 0 0
STLB Hit, L1D data hit: 0
STLB Hit, L2C data hit: 0
STLB Hit, LLC data hit: 0
STLB Hit, LLC data miss: 0
STLB STLB hints to L2: 0
L1D TOTAL     ACCESS:   12100554  HIT:   11438858  MISS:     661696  HIT %:    94.5317  MISS %:    5.46831   MPKI: 13.2339
L1D LOAD      ACCESS:    8591827  HIT:    7930792  MISS:     661035  HIT %:    92.3062  MISS %:    7.69377   MPKI: 13.2207
L1D RFO       ACCESS:    3508727  HIT:    3508066  MISS:        661  HIT %:    99.9812  MISS %:  0.0188387   MPKI: 0.01322
L1D PREFETCH  REQUESTED:          0  ISSUED:          0  USEFUL:          0  USELESS:          0
L1D USEFUL LOAD PREFETCHES:          0 PREFETCH ISSUED TO LOWER LEVEL:          0  ACCURACY: -nan
L1D TIMELY PREFETCHES:          0 LATE PREFETCHES: 0 DROPPED PREFETCHES: 0
L1D PREFETCHES SAME FILL-ORIGIN LEVEL: 0 DIFFERENT FILL-ORIGIN LEVEL: 0
L1D AVERAGE MISS LATENCY: 24.4872 cycles
L1D RQ	ACCESS:   17541456	FORWARD:          0	MERGED:    8795049	TO_CACHE:    8746328
L1D WQ	ACCESS:    3510282	FORWARD:         79	MERGED:          0	TO_CACHE:    3510282

L1D_Dead_block_count 5 661030
L1D_inaccurate_prefetch_count 0 0
Interactions: positive negative neutral
L1D_interactions 0 0 0
L1D_positive 0 0 0
L1D_negative 0 0 0
L1D_neutral 0 0 0 0 0 0
L1D UNIQUE REGIONS ACCESSED: 0
L1D REGIONS CONFLICTS: 0
L1D Cross Page Prefetch Requests: 0
L1D Same Page Prefetch Requests: 0
L1D ROI Sum of L1D PQ occupancy: 0
L1D PREFETCHES PUSHED FROM L2C: 0
L1I TOTAL     ACCESS:    8772823  HIT:    8772823  MISS:          0  HIT %:        100  MISS %:          0   MPKI: 0
L1I LOAD      ACCESS:    8772823  HIT:    8772823  MISS:          0  HIT %:        100  MISS %:          0   MPKI: 0
L1I PREFETCH  REQUESTED:          0  ISSUED:          0  USEFUL:          0  USELESS:          0
L1I USEFUL LOAD PREFETCHES:          0 PREFETCH ISSUED TO LOWER LEVEL:          0  ACCURACY: -nan
L1I TIMELY PREFETCHES:          0 LATE PREFETCHES: 0 DROPPED PREFETCHES: 0
L1I PREFETCHES SAME FILL-ORIGIN LEVEL: 0 DIFFERENT FILL-ORIGIN LEVEL: 0
L1I AVERAGE MISS LATENCY: -nan cycles
L1I RQ	ACCESS:   11407695	FORWARD:          0	MERGED:    2634872	TO_CACHE:    8772823

L1I_Dead_block_count 0 0
L1I_inaccurate_prefetch_count 0 0
Interactions: positive negative neutral
L1I_interactions 0 0 0
L1I_positive 0 0 0
L1I_negative 0 0 0
L1I_neutral 0 0 0 0 0 0
BTB TOTAL     ACCESS:     877290  HIT:     877281  MISS:          9  HIT %:     99.999  MISS %: 0.00102589   MPKI: 0.00018
BTB BRANCH_DIRECT_JUMP	ACCESS:        220  HIT:        218  MISS:          2
BTB BRANCH_INDIRECT	ACCESS:          0  HIT:          0  MISS:          0
BTB BRANCH_CONDITIONAL	ACCESS:     876630  HIT:     876627  MISS:          3
BTB BRANCH_DIRECT_CALL	ACCESS:        220  HIT:        218  MISS:          2
BTB BRANCH_INDIRECT_CALL	ACCESS:          0  HIT:          0  MISS:          0
BTB BRANCH_RETURN	ACCESS:        220  HIT:        218  MISS:          2
BTB BRANCH_OTHER ACCESS:          0  HIT:          0  MISS:          0

L2C TOTAL     ACCESS:    3353515  HIT:    2906693  MISS:     446822  HIT %:     86.676  MISS %:     13.324   MPKI: 8.93644
L2C LOAD      ACCESS:     661035  HIT:     525700  MISS:     135335  HIT %:    79.5268  MISS %:    20.4732   MPKI: 2.7067
L2C DATA LOAD MPKI: 2.7067
L2C INSTRUCTION LOAD MPKI: 0
L2C RFO       ACCESS:        661  HIT:        470  MISS:        191  HIT %:    71.1044  MISS %:    28.8956   MPKI: 0.00382
L2C PREFETCH  ACCESS:    2245598  HIT:    1935183  MISS:     310415  HIT %:    86.1767  MISS %:    13.8233   MPKI: 6.2083
L2C DATA PREFETCH MPKI: 6.2083
L2C INSTRUCTION PREFETCH MPKI: 0
L2C WRITEBACK ACCESS:     439361  HIT:     439361  MISS:          0  HIT %:        100  MISS %:          0   MPKI: 0
L2C LOAD TRANSLATION ACCESS:       6860  HIT:       5979  MISS:        881  HIT %:    87.1574  MISS %:    12.8426   MPKI: 0.01762
L2C PREFETCH  REQUESTED:    6771112  ISSUED:    6468580  USEFUL:     310343  USELESS:         72
L2C USEFUL LOAD PREFETCHES:     310343 PREFETCH ISSUED TO LOWER LEVEL:    4518142  ACCURACY: 6.86882
L2C TIMELY PREFETCHES:     310343 LATE PREFETCHES: 5453 DROPPED PREFETCHES: 0
L2C PREFETCHES SAME FILL-ORIGIN LEVEL: 315868 DIFFERENT FILL-ORIGIN LEVEL: 4202274
L2C AVERAGE MISS LATENCY: 36.7351 cycles
L2C RQ	ACCESS:     668556	FORWARD:          0	MERGED:          0	TO_CACHE:     668556
L2C WQ	ACCESS:     439361	FORWARD:          0	MERGED:          0	TO_CACHE:     439361
L2C PQ	ACCESS:    6468580	FORWARD:          0	MERGED:      14799	TO_CACHE:    6453781

L2C_Dead_block_count 120 130834
L2C_inaccurate_prefetch_count 0 4518142
Interactions: positive negative neutral
L2C_interactions 2409 0 308025
L2C_positive 2409 0 0
L2C_negative 0 0 0
L2C_neutral 307953 19 0 0 0 53
L2C Instructions Evicting Data 0
L2C Translations Evicting Data 873
L2C Data Evicting Data 445066
L2C Instructions Evicting Instructions 0
L2C Translations Evicting Instructions 0
L2C Data Evicting Instructions 0
L2C Instructions Evicting Translations 0
L2C Translations Evicting Translations 8
L2C Data Evicting Translations 875
L2C Dense regions hint from L2: 0
PSCL5 TOTAL     ACCESS:       6858  HIT:       6858  MISS:          0  HIT %:        100  MISS %:          0   MPKI: 0
PSCL5 LOAD TRANSLATION ACCESS:       6858  HIT:       6858  MISS:          0  HIT %:        100  MISS %:          0   MPKI: 0
PSCL5 PREFETCH  REQUESTED:          0  ISSUED:          0  USEFUL:          0  USELESS:          0
PSCL5 USEFUL LOAD PREFETCHES:          0 PREFETCH ISSUED TO LOWER LEVEL:          0  ACCURACY: -nan
PSCL5 TIMELY PREFETCHES:          0 LATE PREFETCHES: 0 DROPPED PREFETCHES: 0
PSCL5 PREFETCHES SAME FILL-ORIGIN LEVEL: 0 DIFFERENT FILL-ORIGIN LEVEL: 0

PSCL5_Dead_block_count 0 0
PSCL5_inaccurate_prefetch_count 0 0
Interactions: positive negative neutral
PSCL5_interactions 0 0 0
PSCL5_positive 0 0 0
PSCL5_negative 0 0 0
PSCL5_neutral 0 0 0 0 0 0
PSCL4 TOTAL     ACCESS:       6858  HIT:       6858  MISS:          0  HIT %:        100  MISS %:          0   MPKI: 0
PSCL4 LOAD TRANSLATION ACCESS:       6858  HIT:       6858  MISS:          0  HIT %:        100  MISS %:          0   MPKI: 0
PSCL4 PREFETCH  REQUESTED:          0  ISSUED:          0  USEFUL:          0  USELESS:          0
PSCL4 USEFUL LOAD PREFETCHES:          0 PREFETCH ISSUED TO LOWER LEVEL:          0  ACCURACY: -nan
PSCL4 TIMELY PREFETCHES:          0 LATE PREFETCHES: 0 DROPPED PREFETCHES: 0
PSCL4 PREFETCHES SAME FILL-ORIGIN LEVEL: 0 DIFFERENT FILL-ORIGIN LEVEL: 0

PSCL4_Dead_block_count 0 0
PSCL4_inaccurate_prefetch_count 0 0
Interactions: positive negative neutral
PSCL4_interactions 0 0 0
PSCL4_positive 0 0 0
PSCL4_negative 0 0 0
PSCL4_neutral 0 0 0 0 0 0
PSCL3 TOTAL     ACCESS:       6858  HIT:       6857  MISS:          1  HIT %:    99.9854  MISS %:  0.0145815   MPKI: 2e-05
PSCL3 LOAD TRANSLATION ACCESS:       6858  HIT:       6857  MISS:          1  HIT %:    99.9854  MISS %:  0.0145815   MPKI: 2e-05
PSCL3 PREFETCH  REQUESTED:          0  ISSUED:          0  USEFUL:          0  USELESS:          0
PSCL3 USEFUL LOAD PREFETCHES:          0 PREFETCH ISSUED TO LOWER LEVEL:          0  ACCURACY: -nan
PSCL3 TIMELY PREFETCHES:          0 LATE PREFETCHES: 0 DROPPED PREFETCHES: 0
PSCL3 PREFETCHES SAME FILL-ORIGIN LEVEL: 0 DIFFERENT FILL-ORIGIN LEVEL: 0

PSCL3_Dead_block_count 0 0
PSCL3_inaccurate_prefetch_count 0 0
Interactions: positive negative neutral
PSCL3_interactions 0 0 0
PSCL3_positive 0 0 0
PSCL3_negative 0 0 0
PSCL3_neutral 0 0 0 0 0 0
PSCL2 TOTAL     ACCESS:       6858  HIT:       6837  MISS:         21  HIT %:    99.6938  MISS %:   0.306212   MPKI: 0.00042
PSCL2 LOAD TRANSLATION ACCESS:       6858  HIT:       6837  MISS:         21  HIT %:    99.6938  MISS %:   0.306212   MPKI: 0.00042
PSCL2 PREFETCH  REQUESTED:          0  ISSUED:          0  USEFUL:          0  USELESS:          0
PSCL2 USEFUL LOAD PREFETCHES:          0 PREFETCH ISSUED TO LOWER LEVEL:          0  ACCURACY: -nan
PSCL2 TIMELY PREFETCHES:          0 LATE PREFETCHES: 0 DROPPED PREFETCHES: 0
PSCL2 PREFETCHES SAME FILL-ORIGIN LEVEL: 0 DIFFERENT FILL-ORIGIN LEVEL: 0

PSCL2_Dead_block_count 0 0
PSCL2_inaccurate_prefetch_count 0 0
Interactions: positive negative neutral
PSCL2_interactions 0 0 0
PSCL2_positive 0 0 0
PSCL2_negative 0 0 0
PSCL2_neutral 0 0 0 0 0 0
LLC TOTAL     ACCESS:    4833617  HIT:    4391173  MISS:     442444  HIT %:    90.8465  MISS %:    9.15348   MPKI: 8.84888
LLC LOAD      ACCESS:     129882  HIT:     117688  MISS:      12194  HIT %:    90.6115  MISS %:    9.38852   MPKI: 0.24388
LLC RFO       ACCESS:        191  HIT:        191  MISS:          0  HIT %:        100  MISS %:          0   MPKI: 0
LLC PREFETCH  ACCESS:    4264158  HIT:    3834791  MISS:     429367  HIT %:    89.9308  MISS %:    10.0692   MPKI: 8.58734
LLC WRITEBACK ACCESS:     438505  HIT:     438503  MISS:          2  HIT %:    99.9995  MISS %: 0.000456095   MPKI: 4e-05
LLC LOAD TRANSLATION ACCESS:        881  HIT:          0  MISS:        881  HIT %:          0  MISS %:        100   MPKI: 0.01762
LLC PREFETCH  REQUESTED:          0  ISSUED:          0  USEFUL:     116633  USELESS:     312077
LLC USEFUL LOAD PREFETCHES:     116633 PREFETCH ISSUED TO LOWER LEVEL:     430568  ACCURACY: 27.0882
LLC TIMELY PREFETCHES:     116633 LATE PREFETCHES: 1201 DROPPED PREFETCHES: 0
LLC PREFETCHES SAME FILL-ORIGIN LEVEL: 425520 DIFFERENT FILL-ORIGIN LEVEL: 0
LLC AVERAGE MISS LATENCY: 169.436 cycles
LLC RQ	ACCESS:     130954	FORWARD:          0	MERGED:          0	TO_CACHE:     130954
LLC WQ	ACCESS:     438505	FORWARD:          0	MERGED:          0	TO_CACHE:     438505
LLC PQ	ACCESS:    4518142	FORWARD:          0	MERGED:       1435	TO_CACHE:    4516707

LLC_Dead_block_count 50 11824
LLC_inaccurate_prefetch_count 107454 323114
Interactions: positive negative neutral
LLC_interactions 55358 83988 294343
LLC_positive 2425 616 52317
LLC_negative 31243 481 52264
LLC_neutral 87134 3045 812 180 23118 180054
LLC Dense regions hint to LLC: 0

RAW hits: 797
Loads Generated: 17542252
Loads sent to L1D: 17541456
Stores Generated: 3510282
Stores sent to L1D: 3510282
Major fault: 0 Minor fault: 8326
Allocated PAGES: 8326
 All Calls: 793248
 Critical Calls: 793248
------------------
Depth Distribution
------------------
depth 0: 0
depth 1: 772200
depth 2: 757872
depth 3: 744572
depth 4: 727002
depth 5: 704874
depth 6: 685700
depth 7: 658502
depth 8: 627852
depth 9: 527306
depth 10: 500229
depth 11: 407120
depth 12: 324182
depth 13: 181357
depth 14: 54736
depth 15: 52854
depth 16: 81
depth 17: 0
depth 18: 0
depth 19: 0
depth 20: 0
depth 21: 0
depth 22: 0
depth 23: 0
depth 24: 0
depth 25: 0
depth 26: 0
depth 27: 0
depth 28: 0
depth 29: 0
Total: 7726439
-----------------------------
-----------------------------
	Captured at Filter
-----------------------------
depth 0: 0
depth 1: 6637
depth 2: 6304
depth 3: 6278
depth 4: 6174
depth 5: 6133
depth 6: 6060
depth 7: 6031
depth 8: 5970
depth 9: 5223
depth 10: 5186
depth 11: 4443
depth 12: 3495
depth 13: 1845
depth 14: 543
depth 15: 541
depth 16: 1
depth 17: 0
depth 18: 0
depth 19: 0
depth 20: 0
depth 21: 0
depth 22: 0
depth 23: 0
depth 24: 0
depth 25: 0
depth 26: 0
depth 27: 0
depth 28: 0
depth 29: 0
-----------------------------
-----------------------------
		Lost at Page
-----------------------------
depth 0: 0
depth 1: 12303
depth 2: 24592
depth 3: 36884
depth 4: 49181
depth 5: 61468
depth 6: 73706
depth 7: 85651
depth 8: 97248
depth 9: 95121
depth 10: 105063
depth 11: 98930
depth 12: 89971
depth 13: 56753
depth 14: 19044
depth 15: 20359
depth 16: 26
depth 17: 0
depth 18: 0
depth 19: 0
depth 20: 0
depth 21: 0
depth 22: 0
depth 23: 0
depth 24: 0
depth 25: 0
depth 26: 0
depth 27: 0
depth 28: 0
depth 29: 0
-----------------------------
-----------------------------
	Lost due to PQ Size
-----------------------------
405293
-----------------------------
ST read accesses: 654212
ST write accesses: 6823
PT read accesses: 41299652
PT write accesses: 979078
FILTER read accesses: 7937099
FILTER write accesses: 1390138
GHR read accesses: 4276167
GHR write accesses: 770639
GHR counter read accesses: 34358674
GHR counter write accesses: 1604741
ST tag read accesses: 247174300
ST tag write accesses: 3374547

DRAM Statistics
 CHANNEL 0
 RQ ROW_BUFFER_HIT:      48827  ROW_BUFFER_MISS:     393615
 DBUS_CONGESTED:         50
 WQ ROW_BUFFER_HIT:      90142  ROW_BUFFER_MISS:     347967  FULL:          0

 AVG_CONGESTED_CYCLE: 4
 All warmup complete: 2
Channel 0 Bank busy for read cycles: 0
Channel 0 Bank busy for write cycles: 0
Channel 0
Rank 0
0banks busy for read cycles: 13355280
0banks busy for write cycles: 56719
1banks busy for read cycles: 5385062
1banks busy for write cycles: 1117508
2banks busy for read cycles: 8403422
2banks busy for write cycles: 1127932
3banks busy for read cycles: 6252806
3banks busy for write cycles: 2574630
4banks busy for read cycles: 907213
4banks busy for write cycles: 544716
5banks busy for read cycles: 1367860
5banks busy for write cycles: 2397510
6banks busy for read cycles: 205128
6banks busy for write cycles: 635094
7banks busy for read cycles: 162934
7banks busy for write cycles: 564883
8banks busy for read cycles: 961794
8banks busy for write cycles: 3906979

CPU 0 Branch Prediction Accuracy: 99.9751% MPKI: 0.00438 Average ROB Occupancy at Mispredict: 63.0913
Branch types
NOT_BRANCH: 49121623 98.2432%
BRANCH_DIRECT_JUMP: 220 0.00044%
BRANCH_INDIRECT: 0 0%
BRANCH_CONDITIONAL: 877399 1.7548%
BRANCH_DIRECT_CALL: 220 0.00044%
BRANCH_INDIRECT_CALL: 0 0%
BRANCH_RETURN: 220 0.00044%
BRANCH_OTHER: 0 0%

@sumon_overall_L1D         0         0         0         0         0         0         0
@Sumon_Early_by_class_L1D         0         0         0         0
@Sumon_Late_by_class_L1D         0         0         0         0

@Sumon_Early_by_cycle_L1D         0         0         0         0         0         0         0         0         0         0         0         0
@Sumon_Late_by_cycle_L1D         0         0         0         0         0         0
@Sumon_Early_stream_L1D         0         0         0         0         0         0         0         0         0         0         0         0
@Sumon_Early_CS_L1D         0         0         0         0         0         0         0         0         0         0         0         0
@Sumon_Early_CPLX_L1D         0         0         0         0         0         0         0         0         0         0         0         0
@Sumon_Late_stream_L1D         0         0         0         0         0         0
@Sumon_Late_CS_L1D         0         0         0         0         0         0
@Sumon_Late_CPLX_L1D         0         0         0         0         0         0
@sumon_overall_L2C    310343      5453         0        72    310415   6468580   6771112
@Sumon_Early_by_class_L2C         0         0         0         0
@Sumon_Late_by_class_L2C         0         0         0         0

@Sumon_Early_by_cycle_L2C    286484     22832       836        27         1         1         0         0         0         0         0       162
@Sumon_Late_by_cycle_L2C       625      1685       281         8      2854         0
@Sumon_Early_stream_L2C         0         0         0         0         0         0         0         0         0         0         0         0
@Sumon_Early_CS_L2C         0         0         0         0         0         0         0         0         0         0         0         0
@Sumon_Early_CPLX_L2C         0         0         0         0         0         0         0         0         0         0         0         0
@Sumon_Late_stream_L2C         0         0         0         0         0         0
@Sumon_Late_CS_L2C         0         0         0         0         0         0
@Sumon_Late_CPLX_L2C         0         0         0         0         0         0
DRAM PAGES: 1048576
Allocated PAGES: 8326
