Initialize SIGNATURE TABLE
ST_SET: 1
ST_WAY: 256
ST_TAG_BIT: 16
ST_TAG_MASK: ffff

Initialize PATTERN TABLE
PT_SET: 512
PT_WAY: 4
SIG_DELTA_BIT: 7
C_SIG_BIT: 4
C_DELTA_BIT: 4

Initialize PREFETCH FILTER
FILTER_SET: 1024

*** ChampSim Multicore Out-of-Order Simulator ***

Warmup Instructions: 10000000
Simulation Instructions: 50000000
Number of CPUs: 1
LLC sets: 2048
LLC ways: 16
Off-chip DRAM Size: 4096 MB Channels: 1 Width: 64-bit Data Rate: 6400 MT/s
CPU 0 runs traces/SPEC2017/657.xz_s-2302B.champsimtrace.xz
.xz
CPU 0 Bimodal branch predictor
BTB has LRU replacement policy
ITLB has LRU replacement policy
DTLB has LRU replacement policy
STLB has LRU replacement policy
L1I has LRU replacement policy
L1D has LRU replacement policy
ST_WAYS: 256
PT_SETS: 512
L2C has LRU replacement policy
LLC has LRU replacement policy
Heartbeat CPU 0 instructions: 10000003 cycles: 2791099 heartbeat IPC: 3.58282 cumulative IPC: 3.58282 (Simulation time: 0 hr 6 min 11 sec) 

Warmup complete CPU 0 instructions: 10000003 cycles: 2791099 (Simulation time: 0 hr 6 min 11 sec) 

Heartbeat CPU 0 instructions: 20000002 cycles: 21950410 heartbeat IPC: 0.521939 cumulative IPC: 0.521939 (Simulation time: 0 hr 14 min 16 sec) 
Heartbeat CPU 0 instructions: 30000000 cycles: 41619557 heartbeat IPC: 0.50841 cumulative IPC: 0.515086 (Simulation time: 0 hr 22 min 25 sec) 
Heartbeat CPU 0 instructions: 40000000 cycles: 61248120 heartbeat IPC: 0.509462 cumulative IPC: 0.513197 (Simulation time: 0 hr 30 min 36 sec) 
Heartbeat CPU 0 instructions: 50000000 cycles: 80928306 heartbeat IPC: 0.508125 cumulative IPC: 0.51192 (Simulation time: 0 hr 38 min 46 sec) 
Heartbeat CPU 0 instructions: 60000001 cycles: 100766126 heartbeat IPC: 0.504088 cumulative IPC: 0.510334 (Simulation time: 0 hr 46 min 58 sec) 
Finished CPU 0 instructions: 50000000 cycles: 97975030 cumulative IPC: 0.510334 (Simulation time: 0 hr 46 min 58 sec) 

ChampSim completed all CPUs

Region of Interest Statistics

CPU 0 cumulative IPC: 0.510334 instructions: 50000000 cycles: 97975030
ITLB TOTAL     ACCESS:    7215526  HIT:    7215526  MISS:          0  HIT %:        100  MISS %:          0   MPKI: 0
ITLB LOAD TRANSLATION ACCESS:    7215526  HIT:    7215526  MISS:          0  HIT %:        100  MISS %:          0   MPKI: 0
ITLB PREFETCH  REQUESTED:          0  ISSUED:          0  USEFUL:          0  USELESS:          0
ITLB USEFUL LOAD PREFETCHES:          0 PREFETCH ISSUED TO LOWER LEVEL:          0  ACCURACY: -nan
ITLB TIMELY PREFETCHES:          0 LATE PREFETCHES: 0 DROPPED PREFETCHES: 0
ITLB PREFETCHES SAME FILL-ORIGIN LEVEL: 0 DIFFERENT FILL-ORIGIN LEVEL: 0
ITLB AVERAGE MISS LATENCY: -nan cycles
ITLB RQ	ACCESS:    8559881	FORWARD:          0	MERGED:    1344355	TO_CACHE:    7215526

ITLB_Dead_block_count 0 0
ITLB_inaccurate_prefetch_count 0 0
Interactions: positive negative neutral
ITLB_interactions 0 0 0
ITLB_positive 0 0 0
ITLB_negative 0 0 0
ITLB_neutral 0 0 0 0 0 0
DTLB TOTAL     ACCESS:   10199567  HIT:    9901339  MISS:     298228  HIT %:    97.0761  MISS %:    2.92393   MPKI: 5.96456
DTLB LOAD TRANSLATION ACCESS:   10199567  HIT:    9901339  MISS:     298228  HIT %:    97.0761  MISS %:    2.92393   MPKI: 5.96456
DTLB PREFETCH  REQUESTED:          0  ISSUED:          0  USEFUL:          0  USELESS:          0
DTLB USEFUL LOAD PREFETCHES:          0 PREFETCH ISSUED TO LOWER LEVEL:          0  ACCURACY: -nan
DTLB TIMELY PREFETCHES:          0 LATE PREFETCHES: 0 DROPPED PREFETCHES: 0
DTLB PREFETCHES SAME FILL-ORIGIN LEVEL: 0 DIFFERENT FILL-ORIGIN LEVEL: 0
DTLB AVERAGE MISS LATENCY: 14.2498 cycles
DTLB RQ	ACCESS:   12238840	FORWARD:          0	MERGED:    2037109	TO_CACHE:   10201731

DTLB_Dead_block_count 298224 4
DTLB_inaccurate_prefetch_count 0 0
Interactions: positive negative neutral
DTLB_interactions 0 0 0
DTLB_positive 0 0 0
DTLB_negative 0 0 0
DTLB_neutral 0 0 0 0 0 0
STLB TOTAL     ACCESS:     298228  HIT:     252364  MISS:      45864  HIT %:    84.6212  MISS %:    15.3788   MPKI: 0.91728
STLB LOAD TRANSLATION ACCESS:     298228  HIT:     252364  MISS:      45864  HIT %:    84.6212  MISS %:    15.3788   MPKI: 0.91728
STLB PREFETCH  REQUESTED:          0  ISSUED:          0  USEFUL:          0  USELESS:          0
STLB USEFUL LOAD PREFETCHES:          0 PREFETCH ISSUED TO LOWER LEVEL:          0  ACCURACY: -nan
STLB TIMELY PREFETCHES:          0 LATE PREFETCHES: 0 DROPPED PREFETCHES: 0
STLB PREFETCHES SAME FILL-ORIGIN LEVEL: 0 DIFFERENT FILL-ORIGIN LEVEL: 0
STLB AVERAGE MISS LATENCY: 34.0331 cycles
STLB RQ	ACCESS:     298228	FORWARD:          0	MERGED:          0	TO_CACHE:     298228

STLB_Dead_block_count 45860 4
STLB_inaccurate_prefetch_count 0 0
Interactions: positive negative neutral
STLB_interactions 0 0 0
STLB_positive 0 0 0
STLB_negative 0 0 0
STLB_neutral 0 0 0 0 0 0
STLB Hit, L1D data hit: 0
STLB Hit, L2C data hit: 0
STLB Hit, LLC data hit: 0
STLB Hit, LLC data miss: 0
STLB STLB hints to L2: 0
L1D TOTAL     ACCESS:   12190714  HIT:   11854576  MISS:     336138  HIT %:    97.2427  MISS %:    2.75733   MPKI: 6.72276
L1D LOAD      ACCESS:    8349341  HIT:    8049535  MISS:     299806  HIT %:    96.4092  MISS %:    3.59077   MPKI: 5.99612
L1D RFO       ACCESS:    3841373  HIT:    3805041  MISS:      36332  HIT %:    99.0542  MISS %:   0.945808   MPKI: 0.72664
L1D PREFETCH  REQUESTED:          0  ISSUED:          0  USEFUL:          0  USELESS:          0
L1D USEFUL LOAD PREFETCHES:          0 PREFETCH ISSUED TO LOWER LEVEL:          0  ACCURACY: -nan
L1D TIMELY PREFETCHES:          0 LATE PREFETCHES: 0 DROPPED PREFETCHES: 0
L1D PREFETCHES SAME FILL-ORIGIN LEVEL: 0 DIFFERENT FILL-ORIGIN LEVEL: 0
L1D AVERAGE MISS LATENCY: 71.7913 cycles
L1D RQ	ACCESS:   11328445	FORWARD:          0	MERGED:    2923102	TO_CACHE:    8380475
L1D WQ	ACCESS:    3924692	FORWARD:      24868	MERGED:      66327	TO_CACHE:    3858365

L1D_Dead_block_count 197 299609
L1D_inaccurate_prefetch_count 0 0
Interactions: positive negative neutral
L1D_interactions 0 0 0
L1D_positive 0 0 0
L1D_negative 0 0 0
L1D_neutral 0 0 0 0 0 0
L1D UNIQUE REGIONS ACCESSED: 0
L1D REGIONS CONFLICTS: 0
L1D Cross Page Prefetch Requests: 0
L1D Same Page Prefetch Requests: 0
L1D ROI Sum of L1D PQ occupancy: 0
L1D PREFETCHES PUSHED FROM L2C: 0
L1I TOTAL     ACCESS:    8559832  HIT:    8559731  MISS:        101  HIT %:    99.9988  MISS %: 0.00117993   MPKI: 0.00202
L1I LOAD      ACCESS:    8559832  HIT:    8559731  MISS:        101  HIT %:    99.9988  MISS %: 0.00117993   MPKI: 0.00202
L1I PREFETCH  REQUESTED:          0  ISSUED:          0  USEFUL:          0  USELESS:          0
L1I USEFUL LOAD PREFETCHES:          0 PREFETCH ISSUED TO LOWER LEVEL:          0  ACCURACY: -nan
L1I TIMELY PREFETCHES:          0 LATE PREFETCHES: 0 DROPPED PREFETCHES: 0
L1I PREFETCHES SAME FILL-ORIGIN LEVEL: 0 DIFFERENT FILL-ORIGIN LEVEL: 0
L1I AVERAGE MISS LATENCY: 158.426 cycles
L1I RQ	ACCESS:   13100270	FORWARD:          0	MERGED:    4540389	TO_CACHE:    8559881

L1I_Dead_block_count 97 4
L1I_inaccurate_prefetch_count 0 0
Interactions: positive negative neutral
L1I_interactions 0 0 0
L1I_positive 0 0 0
L1I_negative 0 0 0
L1I_neutral 0 0 0 0 0 0
BTB TOTAL     ACCESS:    6175373  HIT:    6121295  MISS:      54078  HIT %:    99.1243  MISS %:   0.875704   MPKI: 1.08156
BTB BRANCH_DIRECT_JUMP	ACCESS:     694882  HIT:     694800  MISS:         82
BTB BRANCH_INDIRECT	ACCESS:      93373  HIT:      41549  MISS:      51824
BTB BRANCH_CONDITIONAL	ACCESS:    5266896  HIT:    5266636  MISS:        260
BTB BRANCH_DIRECT_CALL	ACCESS:      37667  HIT:      37644  MISS:         23
BTB BRANCH_INDIRECT_CALL	ACCESS:      22444  HIT:      22437  MISS:          7
BTB BRANCH_RETURN	ACCESS:      60111  HIT:      58229  MISS:       1882
BTB BRANCH_OTHER ACCESS:          0  HIT:          0  MISS:          0

L2C TOTAL     ACCESS:     603384  HIT:     422330  MISS:     181054  HIT %:    69.9936  MISS %:    30.0064   MPKI: 3.62108
L2C LOAD      ACCESS:     299907  HIT:     140720  MISS:     159187  HIT %:    46.9212  MISS %:    53.0788   MPKI: 3.18374
L2C DATA LOAD MPKI: 3.18172
L2C INSTRUCTION LOAD MPKI: 0.00202
L2C RFO       ACCESS:      36332  HIT:      23436  MISS:      12896  HIT %:    64.5051  MISS %:    35.4949   MPKI: 0.25792
L2C PREFETCH  ACCESS:       4135  HIT:       2465  MISS:       1670  HIT %:    59.6131  MISS %:    40.3869   MPKI: 0.0334
L2C DATA PREFETCH MPKI: 0.0334
L2C INSTRUCTION PREFETCH MPKI: 0
L2C WRITEBACK ACCESS:     217123  HIT:     216688  MISS:        435  HIT %:    99.7997  MISS %:   0.200347   MPKI: 0.0087
L2C LOAD TRANSLATION ACCESS:      45887  HIT:      39021  MISS:       6866  HIT %:    85.0372  MISS %:    14.9628   MPKI: 0.13732
L2C PREFETCH  REQUESTED:      29339  ISSUED:      29339  USEFUL:       1639  USELESS:         33
L2C USEFUL LOAD PREFETCHES:       1639 PREFETCH ISSUED TO LOWER LEVEL:      26857  ACCURACY: 6.10269
L2C TIMELY PREFETCHES:       1639 LATE PREFETCHES: 0 DROPPED PREFETCHES: 0
L2C PREFETCHES SAME FILL-ORIGIN LEVEL: 1670 DIFFERENT FILL-ORIGIN LEVEL: 25187
L2C AVERAGE MISS LATENCY: 107.78 cycles
L2C RQ	ACCESS:     382127	FORWARD:          0	MERGED:          0	TO_CACHE:     382127
L2C WQ	ACCESS:     217123	FORWARD:          0	MERGED:          0	TO_CACHE:     217123
L2C PQ	ACCESS:      29339	FORWARD:          0	MERGED:          1	TO_CACHE:      29338

L2C_Dead_block_count 69581 109369
L2C_inaccurate_prefetch_count 2251 24606
Interactions: positive negative neutral
L2C_interactions 650 17 1036
L2C_positive 650 0 0
L2C_negative 1 16 0
L2C_neutral 1018 17 1 0 0 0
L2C Instructions Evicting Data 97
L2C Translations Evicting Data 6479
L2C Data Evicting Data 167007
L2C Instructions Evicting Instructions 0
L2C Translations Evicting Instructions 5
L2C Data Evicting Instructions 120
L2C Instructions Evicting Translations 4
L2C Translations Evicting Translations 382
L2C Data Evicting Translations 6525
L2C Dense regions hint from L2: 0
PSCL5 TOTAL     ACCESS:      45864  HIT:      45864  MISS:          0  HIT %:        100  MISS %:          0   MPKI: 0
PSCL5 LOAD TRANSLATION ACCESS:      45864  HIT:      45864  MISS:          0  HIT %:        100  MISS %:          0   MPKI: 0
PSCL5 PREFETCH  REQUESTED:          0  ISSUED:          0  USEFUL:          0  USELESS:          0
PSCL5 USEFUL LOAD PREFETCHES:          0 PREFETCH ISSUED TO LOWER LEVEL:          0  ACCURACY: -nan
PSCL5 TIMELY PREFETCHES:          0 LATE PREFETCHES: 0 DROPPED PREFETCHES: 0
PSCL5 PREFETCHES SAME FILL-ORIGIN LEVEL: 0 DIFFERENT FILL-ORIGIN LEVEL: 0

PSCL5_Dead_block_count 0 0
PSCL5_inaccurate_prefetch_count 0 0
Interactions: positive negative neutral
PSCL5_interactions 0 0 0
PSCL5_positive 0 0 0
PSCL5_negative 0 0 0
PSCL5_neutral 0 0 0 0 0 0
PSCL4 TOTAL     ACCESS:      45864  HIT:      45864  MISS:          0  HIT %:        100  MISS %:          0   MPKI: 0
PSCL4 LOAD TRANSLATION ACCESS:      45864  HIT:      45864  MISS:          0  HIT %:        100  MISS %:          0   MPKI: 0
PSCL4 PREFETCH  REQUESTED:          0  ISSUED:          0  USEFUL:          0  USELESS:          0
PSCL4 USEFUL LOAD PREFETCHES:          0 PREFETCH ISSUED TO LOWER LEVEL:          0  ACCURACY: -nan
PSCL4 TIMELY PREFETCHES:          0 LATE PREFETCHES: 0 DROPPED PREFETCHES: 0
PSCL4 PREFETCHES SAME FILL-ORIGIN LEVEL: 0 DIFFERENT FILL-ORIGIN LEVEL: 0

PSCL4_Dead_block_count 0 0
PSCL4_inaccurate_prefetch_count 0 0
Interactions: positive negative neutral
PSCL4_interactions 0 0 0
PSCL4_positive 0 0 0
PSCL4_negative 0 0 0
PSCL4_neutral 0 0 0 0 0 0
PSCL3 TOTAL     ACCESS:      45864  HIT:      45863  MISS:          1  HIT %:    99.9978  MISS %: 0.00218036   MPKI: 2e-05
PSCL3 LOAD TRANSLATION ACCESS:      45864  HIT:      45863  MISS:          1  HIT %:    99.9978  MISS %: 0.00218036   MPKI: 2e-05
PSCL3 PREFETCH  REQUESTED:          0  ISSUED:          0  USEFUL:          0  USELESS:          0
PSCL3 USEFUL LOAD PREFETCHES:          0 PREFETCH ISSUED TO LOWER LEVEL:          0  ACCURACY: -nan
PSCL3 TIMELY PREFETCHES:          0 LATE PREFETCHES: 0 DROPPED PREFETCHES: 0
PSCL3 PREFETCHES SAME FILL-ORIGIN LEVEL: 0 DIFFERENT FILL-ORIGIN LEVEL: 0

PSCL3_Dead_block_count 0 0
PSCL3_inaccurate_prefetch_count 0 0
Interactions: positive negative neutral
PSCL3_interactions 0 0 0
PSCL3_positive 0 0 0
PSCL3_negative 0 0 0
PSCL3_neutral 0 0 0 0 0 0
PSCL2 TOTAL     ACCESS:      45864  HIT:      45840  MISS:         24  HIT %:    99.9477  MISS %:  0.0523286   MPKI: 0.00048
PSCL2 LOAD TRANSLATION ACCESS:      45864  HIT:      45840  MISS:         24  HIT %:    99.9477  MISS %:  0.0523286   MPKI: 0.00048
PSCL2 PREFETCH  REQUESTED:          0  ISSUED:          0  USEFUL:          0  USELESS:          0
PSCL2 USEFUL LOAD PREFETCHES:          0 PREFETCH ISSUED TO LOWER LEVEL:          0  ACCURACY: -nan
PSCL2 TIMELY PREFETCHES:          0 LATE PREFETCHES: 0 DROPPED PREFETCHES: 0
PSCL2 PREFETCHES SAME FILL-ORIGIN LEVEL: 0 DIFFERENT FILL-ORIGIN LEVEL: 0

PSCL2_Dead_block_count 0 0
PSCL2_inaccurate_prefetch_count 0 0
Interactions: positive negative neutral
PSCL2_interactions 0 0 0
PSCL2_positive 0 0 0
PSCL2_negative 0 0 0
PSCL2_neutral 0 0 0 0 0 0
LLC TOTAL     ACCESS:     326706  HIT:     236881  MISS:      89825  HIT %:    72.5059  MISS %:    27.4941   MPKI: 1.7965
LLC LOAD      ACCESS:     159187  HIT:      87389  MISS:      71798  HIT %:    54.8971  MISS %:    45.1029   MPKI: 1.43596
LLC RFO       ACCESS:      12896  HIT:       4520  MISS:       8376  HIT %:    35.0496  MISS %:    64.9504   MPKI: 0.16752
LLC PREFETCH  ACCESS:      26180  HIT:      18206  MISS:       7974  HIT %:    69.5416  MISS %:    30.4584   MPKI: 0.15948
LLC WRITEBACK ACCESS:     121577  HIT:     121018  MISS:        559  HIT %:    99.5402  MISS %:   0.459791   MPKI: 0.01118
LLC LOAD TRANSLATION ACCESS:       6866  HIT:       5748  MISS:       1118  HIT %:    83.7169  MISS %:    16.2831   MPKI: 0.02236
LLC PREFETCH  REQUESTED:          0  ISSUED:          0  USEFUL:       1968  USELESS:       5423
LLC USEFUL LOAD PREFETCHES:       1968 PREFETCH ISSUED TO LOWER LEVEL:       7988  ACCURACY: 24.637
LLC TIMELY PREFETCHES:       1968 LATE PREFETCHES: 14 DROPPED PREFETCHES: 0
LLC PREFETCHES SAME FILL-ORIGIN LEVEL: 7957 DIFFERENT FILL-ORIGIN LEVEL: 0
LLC AVERAGE MISS LATENCY: 171.504 cycles
LLC RQ	ACCESS:     178950	FORWARD:          0	MERGED:          0	TO_CACHE:     178950
LLC WQ	ACCESS:     121577	FORWARD:          0	MERGED:          0	TO_CACHE:     121577
LLC PQ	ACCESS:      26857	FORWARD:          0	MERGED:          0	TO_CACHE:      26857

LLC_Dead_block_count 17523 63756
LLC_inaccurate_prefetch_count 3836 4152
Interactions: positive negative neutral
LLC_interactions 3119 2931 6051
LLC_positive 2049 834 236
LLC_negative 1344 1258 329
LLC_neutral 1263 1019 2061 1016 494 198
LLC Dense regions hint to LLC: 0

RAW hits: 446324
Loads Generated: 11774763
Loads sent to L1D: 11328445
Stores Generated: 3924692
Stores sent to L1D: 3924692
Major fault: 0 Minor fault: 6477
Allocated PAGES: 6477
 All Calls: 360554
 Critical Calls: 360554
------------------
Depth Distribution
------------------
depth 0: 0
depth 1: 16590
depth 2: 3052
depth 3: 2600
depth 4: 2453
depth 5: 2339
depth 6: 1965
depth 7: 1537
depth 8: 1036
depth 9: 589
depth 10: 99
depth 11: 7
depth 12: 0
depth 13: 0
depth 14: 0
depth 15: 0
depth 16: 0
depth 17: 0
depth 18: 0
depth 19: 0
depth 20: 0
depth 21: 0
depth 22: 0
depth 23: 0
depth 24: 0
depth 25: 0
depth 26: 0
depth 27: 0
depth 28: 0
depth 29: 0
Total: 32267
-----------------------------
-----------------------------
	Captured at Filter
-----------------------------
depth 0: 0
depth 1: 20
depth 2: 3
depth 3: 0
depth 4: 0
depth 5: 0
depth 6: 0
depth 7: 0
depth 8: 0
depth 9: 0
depth 10: 0
depth 11: 0
depth 12: 0
depth 13: 0
depth 14: 0
depth 15: 0
depth 16: 0
depth 17: 0
depth 18: 0
depth 19: 0
depth 20: 0
depth 21: 0
depth 22: 0
depth 23: 0
depth 24: 0
depth 25: 0
depth 26: 0
depth 27: 0
depth 28: 0
depth 29: 0
-----------------------------
-----------------------------
		Lost at Page
-----------------------------
depth 0: 0
depth 1: 102
depth 2: 88
depth 3: 127
depth 4: 164
depth 5: 200
depth 6: 208
depth 7: 195
depth 8: 157
depth 9: 107
depth 10: 24
depth 11: 2
depth 12: 0
depth 13: 0
depth 14: 0
depth 15: 0
depth 16: 0
depth 17: 0
depth 18: 0
depth 19: 0
depth 20: 0
depth 21: 0
depth 22: 0
depth 23: 0
depth 24: 0
depth 25: 0
depth 26: 0
depth 27: 0
depth 28: 0
depth 29: 0
-----------------------------
-----------------------------
	Lost due to PQ Size
-----------------------------
0
-----------------------------
ST read accesses: 154343
ST write accesses: 145463
PT read accesses: 2223846
PT write accesses: 177965
FILTER read accesses: 510214
FILTER write accesses: 188072
GHR read accesses: 1187595
GHR write accesses: 1223
GHR counter read accesses: 1921144
GHR counter write accesses: 303168
ST tag read accesses: 189634783
ST tag write accesses: 47629964

DRAM Statistics
 CHANNEL 0
 RQ ROW_BUFFER_HIT:       1531  ROW_BUFFER_MISS:      87735
 DBUS_CONGESTED:          9
 WQ ROW_BUFFER_HIT:       9395  ROW_BUFFER_MISS:      50721  FULL:          0

 AVG_CONGESTED_CYCLE: 7
 All warmup complete: 2
Channel 0 Bank busy for read cycles: 0
Channel 0 Bank busy for write cycles: 0
Channel 0
Rank 0
0banks busy for read cycles: 79349308
0banks busy for write cycles: 39840
1banks busy for read cycles: 9092270
1banks busy for write cycles: 5997575
2banks busy for read cycles: 1566465
2banks busy for write cycles: 1215006
3banks busy for read cycles: 230181
3banks busy for write cycles: 261370
4banks busy for read cycles: 47996
4banks busy for write cycles: 67869
5banks busy for read cycles: 12233
5banks busy for write cycles: 27648
6banks busy for read cycles: 4645
6banks busy for write cycles: 14829
7banks busy for read cycles: 2206
7banks busy for write cycles: 12733
8banks busy for read cycles: 3102
8banks busy for write cycles: 29755

CPU 0 Branch Prediction Accuracy: 87.3628% MPKI: 16.4726 Average ROB Occupancy at Mispredict: 21.4131
Branch types
NOT_BRANCH: 43482132 86.9643%
BRANCH_DIRECT_JUMP: 694882 1.38976%
BRANCH_INDIRECT: 93373 0.186746%
BRANCH_CONDITIONAL: 5609028 11.2181%
BRANCH_DIRECT_CALL: 37667 0.075334%
BRANCH_INDIRECT_CALL: 22444 0.044888%
BRANCH_RETURN: 60111 0.120222%
BRANCH_OTHER: 0 0%

@sumon_overall_L1D         0         0         0         0         0         0         0
@Sumon_Early_by_class_L1D         0         0         0         0
@Sumon_Late_by_class_L1D         0         0         0         0

@Sumon_Early_by_cycle_L1D         0         0         0         0         0         0         0         0         0         0         0         0
@Sumon_Late_by_cycle_L1D         0         0         0         0         0         0
@Sumon_Early_stream_L1D         0         0         0         0         0         0         0         0         0         0         0         0
@Sumon_Early_CS_L1D         0         0         0         0         0         0         0         0         0         0         0         0
@Sumon_Early_CPLX_L1D         0         0         0         0         0         0         0         0         0         0         0         0
@Sumon_Late_stream_L1D         0         0         0         0         0         0
@Sumon_Late_CS_L1D         0         0         0         0         0         0
@Sumon_Late_CPLX_L1D         0         0         0         0         0         0
@sumon_overall_L2C      1639         0         0        33      1670     29339     29339
@Sumon_Early_by_class_L2C         0         0         0         0
@Sumon_Late_by_class_L2C         0         0         0         0

@Sumon_Early_by_cycle_L2C         2      1254         1        65        20       289         1         0         5         0         0         2
@Sumon_Late_by_cycle_L2C         0         0         0         0         0         0
@Sumon_Early_stream_L2C         0         0         0         0         0         0         0         0         0         0         0         0
@Sumon_Early_CS_L2C         0         0         0         0         0         0         0         0         0         0         0         0
@Sumon_Early_CPLX_L2C         0         0         0         0         0         0         0         0         0         0         0         0
@Sumon_Late_stream_L2C         0         0         0         0         0         0
@Sumon_Late_CS_L2C         0         0         0         0         0         0
@Sumon_Late_CPLX_L2C         0         0         0         0         0         0
DRAM PAGES: 1048576
Allocated PAGES: 6477
