
*** ChampSim Multicore Out-of-Order Simulator ***

Warmup Instructions: 50000000
Simulation Instructions: 50000000
Number of CPUs: 1
LLC sets: 2048
LLC ways: 16
Off-chip DRAM Size: 4096 MB Channels: 1 Width: 64-bit Data Rate: 6400 MT/s
CPU 0 runs ../../biswa/SPEC2017Traces/602.gcc_s-1850B.champsimtrace.xz
.xz
CPU 0 Bimodal branch predictor
BTB has LRU replacement policy
ITLB has LRU replacement policy
DTLB has LRU replacement policy
STLB has LRU replacement policy
L1I has LRU replacement policy
IP Table Entries: 256
L1D has LRU replacement policy
IP_Table L2 entries: 256
Initialize DRRIP state for L2C
LLC has LRU replacement policy
Heartbeat CPU 0 instructions: 10000002 cycles: 3263124 heartbeat IPC: 3.06455 cumulative IPC: 3.06455 (Simulation time: 0 hr 3 min 32 sec) 
Heartbeat CPU 0 instructions: 20000000 cycles: 6526608 heartbeat IPC: 3.06421 cumulative IPC: 3.06438 (Simulation time: 0 hr 7 min 9 sec) 
Heartbeat CPU 0 instructions: 30000000 cycles: 9788971 heartbeat IPC: 3.06526 cumulative IPC: 3.06467 (Simulation time: 0 hr 11 min 3 sec) 
Heartbeat CPU 0 instructions: 40000000 cycles: 13051717 heartbeat IPC: 3.0649 cumulative IPC: 3.06473 (Simulation time: 0 hr 15 min 14 sec) 
Heartbeat CPU 0 instructions: 50000000 cycles: 16315569 heartbeat IPC: 3.06386 cumulative IPC: 3.06456 (Simulation time: 0 hr 18 min 43 sec) 

Warmup complete CPU 0 instructions: 50000004 cycles: 16315570 (Simulation time: 0 hr 18 min 43 sec) 

Heartbeat CPU 0 instructions: 60000003 cycles: 46673627 heartbeat IPC: 0.329402 cumulative IPC: 0.329402 (Simulation time: 0 hr 21 min 44 sec) 
Heartbeat CPU 0 instructions: 70000000 cycles: 77031458 heartbeat IPC: 0.329404 cumulative IPC: 0.329403 (Simulation time: 0 hr 24 min 44 sec) 
Heartbeat CPU 0 instructions: 80000003 cycles: 107379270 heartbeat IPC: 0.329513 cumulative IPC: 0.32944 (Simulation time: 0 hr 27 min 35 sec) 
Heartbeat CPU 0 instructions: 90000001 cycles: 137734239 heartbeat IPC: 0.329435 cumulative IPC: 0.329439 (Simulation time: 0 hr 30 min 26 sec) 
Heartbeat CPU 0 instructions: 100000000 cycles: 168083302 heartbeat IPC: 0.329499 cumulative IPC: 0.329451 (Simulation time: 0 hr 32 min 28 sec) 
Finished CPU 0 instructions: 50000001 cycles: 151767734 cumulative IPC: 0.329451 (Simulation time: 0 hr 32 min 28 sec) 

ChampSim completed all CPUs

Region of Interest Statistics

CPU 0 cumulative IPC: 0.329451 instructions: 50000001 cycles: 151767734
ITLB TOTAL     ACCESS:    7742167  HIT:    7742167  MISS:          0  HIT %:        100  MISS %:          0   MPKI: 0
ITLB LOAD TRANSLATION ACCESS:    7742167  HIT:    7742167  MISS:          0  HIT %:        100  MISS %:          0   MPKI: 0
ITLB PREFETCH  REQUESTED:          0  ISSUED:          0  USEFUL:          0  USELESS:          0
ITLB USEFUL LOAD PREFETCHES:          0 PREFETCH ISSUED TO LOWER LEVEL:          0  ACCURACY: -nan
ITLB TIMELY PREFETCHES:          0 LATE PREFETCHES: 0 DROPPED PREFETCHES: 0
ITLB PREFETCHES SAME FILL-ORIGIN LEVEL: 0 DIFFERENT FILL-ORIGIN LEVEL: 0
ITLB AVERAGE MISS LATENCY: -nan cycles
ITLB RQ	ACCESS:    8571382	FORWARD:          0	MERGED:     829215	TO_CACHE:    7742167

Revised Interactions: positive negative neutral
ITLB_interactions 0 0 0 -nan -nan -nan
ITLB_positive -nan -nan -nan
ITLB_negative -nan -nan -nan -nan -nan
ITLB_neutral -nan -nan -nan
DTLB TOTAL     ACCESS:   14943914  HIT:   14927910  MISS:      16004  HIT %:    99.8929  MISS %:   0.107094   MPKI: 0.32008
DTLB LOAD TRANSLATION ACCESS:   14943914  HIT:   14927910  MISS:      16004  HIT %:    99.8929  MISS %:   0.107094   MPKI: 0.32008
DTLB PREFETCH  REQUESTED:          0  ISSUED:          0  USEFUL:          0  USELESS:          0
DTLB USEFUL LOAD PREFETCHES:          0 PREFETCH ISSUED TO LOWER LEVEL:          0  ACCURACY: -nan
DTLB TIMELY PREFETCHES:          0 LATE PREFETCHES: 0 DROPPED PREFETCHES: 0
DTLB PREFETCHES SAME FILL-ORIGIN LEVEL: 0 DIFFERENT FILL-ORIGIN LEVEL: 0
DTLB AVERAGE MISS LATENCY: 144.065 cycles
DTLB RQ	ACCESS:   15260385	FORWARD:          0	MERGED:     316342	TO_CACHE:   14944043

Revised Interactions: positive negative neutral
DTLB_interactions 0 0 0 -nan -nan -nan
DTLB_positive -nan -nan -nan
DTLB_negative -nan -nan -nan -nan -nan
DTLB_neutral -nan -nan -nan
STLB TOTAL     ACCESS:    1894338  HIT:    1879351  MISS:      14987  HIT %:    99.2089  MISS %:   0.791147   MPKI: 0.29974
STLB LOAD TRANSLATION ACCESS:      16004  HIT:       1017  MISS:      14987  HIT %:    6.35466  MISS %:    93.6453   MPKI: 0.29974
STLB TRANSLATION FROM L1D PREFETCHER ACCESS:    1878334  HIT:    1878334  MISS:          0  HIT %:        100  MISS %:          0   MPKI: 0
STLB PREFETCH  REQUESTED:          0  ISSUED:          0  USEFUL:          0  USELESS:          0
STLB USEFUL LOAD PREFETCHES:          0 PREFETCH ISSUED TO LOWER LEVEL:          0  ACCURACY: -nan
STLB TIMELY PREFETCHES:          0 LATE PREFETCHES: 0 DROPPED PREFETCHES: 0
STLB PREFETCHES SAME FILL-ORIGIN LEVEL: 0 DIFFERENT FILL-ORIGIN LEVEL: 0
STLB AVERAGE MISS LATENCY: 144.218 cycles
STLB RQ	ACCESS:    3625991	FORWARD:          0	MERGED:    1731652	TO_CACHE:    1894339

Revised Interactions: positive negative neutral
STLB_interactions 0 0 0 -nan -nan -nan
STLB_positive -nan -nan -nan
STLB_negative -nan -nan -nan -nan -nan
STLB_neutral -nan -nan -nan
STLB Hit, L1D data hit: 0
STLB Hit, L2C data hit: 0
STLB Hit, LLC data hit: 0
STLB Hit, LLC data miss: 0
STLB STLB hints to L2: 0
L1D TOTAL     ACCESS:   18849951  HIT:   17450532  MISS:    1399419  HIT %:     92.576  MISS %:    7.42399   MPKI: 27.9884
L1D LOAD      ACCESS:   10925521  HIT:   10826154  MISS:      99367  HIT %:    99.0905  MISS %:   0.909494   MPKI: 1.98734
L1D RFO       ACCESS:    4315844  HIT:    4315627  MISS:        217  HIT %:     99.995  MISS %: 0.00502799   MPKI: 0.00434
L1D PREFETCH  ACCESS:    3608586  HIT:    2308751  MISS:    1299835  HIT %:    63.9794  MISS %:    36.0206   MPKI: 25.9967
L1D PREFETCH  REQUESTED:    7220006  ISSUED:    7219974  USEFUL:    1074471  USELESS:     225365
L1D USEFUL LOAD PREFETCHES:    1074471 PREFETCH ISSUED TO LOWER LEVEL:    1300183  ACCURACY: 82.64
L1D TIMELY PREFETCHES:    1074471 LATE PREFETCHES: 15452 DROPPED PREFETCHES: 0
L1D PREFETCHES SAME FILL-ORIGIN LEVEL: 1300183 DIFFERENT FILL-ORIGIN LEVEL: 0
L1D AVERAGE MISS LATENCY: 165.844 cycles
L1D RQ	ACCESS:   13899237	FORWARD:          0	MERGED:    2954696	TO_CACHE:   10944541
L1D WQ	ACCESS:    4852705	FORWARD:          0	MERGED:     536861	TO_CACHE:    4315844
L1D PQ	ACCESS:    3609987	FORWARD:          0	MERGED:          0	TO_CACHE:    3609987

Revised Interactions: positive negative neutral
L1D_interactions 0 0 0 -nan -nan -nan
L1D_positive -nan -nan -nan
L1D_negative -nan -nan -nan -nan -nan
L1D_neutral -nan -nan -nan
L1D UNIQUE REGIONS ACCESSED: 0
L1D REGIONS CONFLICTS: 0
L1D Cross Page Prefetch Requests: 0
L1D Same Page Prefetch Requests: 6905779
L1D ROI Sum of L1D PQ occupancy: 48700742
L1D PREFETCHES PUSHED FROM L2C: 0
L1I TOTAL     ACCESS:    8571382  HIT:    8571382  MISS:          0  HIT %:        100  MISS %:          0   MPKI: 0
L1I LOAD      ACCESS:    8571382  HIT:    8571382  MISS:          0  HIT %:        100  MISS %:          0   MPKI: 0
L1I PREFETCH  REQUESTED:          0  ISSUED:          0  USEFUL:          0  USELESS:          0
L1I USEFUL LOAD PREFETCHES:          0 PREFETCH ISSUED TO LOWER LEVEL:          0  ACCURACY: -nan
L1I TIMELY PREFETCHES:          0 LATE PREFETCHES: 0 DROPPED PREFETCHES: 0
L1I PREFETCHES SAME FILL-ORIGIN LEVEL: 0 DIFFERENT FILL-ORIGIN LEVEL: 0
L1I AVERAGE MISS LATENCY: -nan cycles
L1I RQ	ACCESS:   13330290	FORWARD:          0	MERGED:    4758908	TO_CACHE:    8571382

Revised Interactions: positive negative neutral
L1I_interactions 0 0 0 -nan -nan -nan
L1I_positive -nan -nan -nan
L1I_negative -nan -nan -nan -nan -nan
L1I_neutral -nan -nan -nan
BTB TOTAL     ACCESS:    8191440  HIT:    8191411  MISS:         29  HIT %:    99.9996  MISS %: 0.000354028   MPKI: 0.00058
BTB BRANCH_DIRECT_JUMP	ACCESS:    1079484  HIT:    1079475  MISS:          9
BTB BRANCH_INDIRECT	ACCESS:          0  HIT:          0  MISS:          0
BTB BRANCH_CONDITIONAL	ACCESS:    6031793  HIT:    6031779  MISS:         14
BTB BRANCH_DIRECT_CALL	ACCESS:     540081  HIT:     540078  MISS:          3
BTB BRANCH_INDIRECT_CALL	ACCESS:          0  HIT:          0  MISS:          0
BTB BRANCH_RETURN	ACCESS:     540082  HIT:     540079  MISS:          3
BTB BRANCH_OTHER ACCESS:          0  HIT:          0  MISS:          0

L2C TOTAL     ACCESS:    4480015  HIT:    3548742  MISS:     931273  HIT %:    79.2127  MISS %:    20.7873   MPKI: 18.6255
L2C LOAD      ACCESS:      99367  HIT:      82512  MISS:      16855  HIT %:    83.0376  MISS %:    16.9624   MPKI: 0.3371
L2C DATA LOAD MPKI: 0.3371
L2C INSTRUCTION LOAD MPKI: 0
L2C RFO       ACCESS:        214  HIT:        209  MISS:          5  HIT %:    97.6636  MISS %:    2.33645   MPKI: 0.0001
L2C PREFETCH  ACCESS:    4362170  HIT:    3450489  MISS:     911681  HIT %:    79.1003  MISS %:    20.8997   MPKI: 18.2336
L2C DATA PREFETCH MPKI: 18.2336
L2C INSTRUCTION PREFETCH MPKI: 0
L2C WRITEBACK ACCESS:       3226  HIT:       3226  MISS:          0  HIT %:        100  MISS %:          0   MPKI: 0
L2C LOAD TRANSLATION ACCESS:      15038  HIT:      12306  MISS:       2732  HIT %:    81.8327  MISS %:    18.1673   MPKI: 0.05464
L2C PREFETCH  REQUESTED:    4314391  ISSUED:    4314206  USEFUL:       7302  USELESS:     904412
L2C USEFUL LOAD PREFETCHES:       7302 PREFETCH ISSUED TO LOWER LEVEL:     911736  ACCURACY: 0.80089
L2C TIMELY PREFETCHES:       7302 LATE PREFETCHES: 55 DROPPED PREFETCHES: 0
L2C PREFETCHES SAME FILL-ORIGIN LEVEL: 683229 DIFFERENT FILL-ORIGIN LEVEL: 0
L2C AVERAGE MISS LATENCY: 107.081 cycles
L2C RQ	ACCESS:     114619	FORWARD:          0	MERGED:          0	TO_CACHE:     114619
L2C WQ	ACCESS:       3226	FORWARD:          0	MERGED:          0	TO_CACHE:       3226
L2C PQ	ACCESS:    5614044	FORWARD:          0	MERGED:     981950	TO_CACHE:    4632094

Revised Interactions: positive negative neutral
L2C_interactions 7720 905700 2942 0.842462 98.8365 0.321052
L2C_positive 38.7047 0.738342 60.557
L2C_negative 0 0.0101579 0.0188804 1.43094 98.54
L2C_neutral 99.966 0.0339905 0
L2C Instructions Evicting Data 0
L2C Translations Evicting Data 2730
L2C Data Evicting Data 925808
L2C Instructions Evicting Instructions 0
L2C Translations Evicting Instructions 0
L2C Data Evicting Instructions 0
L2C Instructions Evicting Translations 0
L2C Translations Evicting Translations 2
L2C Data Evicting Translations 2733
L2C Dense regions hint from L2: 0
PSCL5 TOTAL     ACCESS:      14987  HIT:      14987  MISS:          0  HIT %:        100  MISS %:          0   MPKI: 0
PSCL5 LOAD TRANSLATION ACCESS:      14987  HIT:      14987  MISS:          0  HIT %:        100  MISS %:          0   MPKI: 0
PSCL5 PREFETCH  REQUESTED:          0  ISSUED:          0  USEFUL:          0  USELESS:          0
PSCL5 USEFUL LOAD PREFETCHES:          0 PREFETCH ISSUED TO LOWER LEVEL:          0  ACCURACY: -nan
PSCL5 TIMELY PREFETCHES:          0 LATE PREFETCHES: 0 DROPPED PREFETCHES: 0
PSCL5 PREFETCHES SAME FILL-ORIGIN LEVEL: 0 DIFFERENT FILL-ORIGIN LEVEL: 0

Revised Interactions: positive negative neutral
PSCL5_interactions 0 0 0 -nan -nan -nan
PSCL5_positive -nan -nan -nan
PSCL5_negative -nan -nan -nan -nan -nan
PSCL5_neutral -nan -nan -nan
PSCL4 TOTAL     ACCESS:      14987  HIT:      14987  MISS:          0  HIT %:        100  MISS %:          0   MPKI: 0
PSCL4 LOAD TRANSLATION ACCESS:      14987  HIT:      14987  MISS:          0  HIT %:        100  MISS %:          0   MPKI: 0
PSCL4 PREFETCH  REQUESTED:          0  ISSUED:          0  USEFUL:          0  USELESS:          0
PSCL4 USEFUL LOAD PREFETCHES:          0 PREFETCH ISSUED TO LOWER LEVEL:          0  ACCURACY: -nan
PSCL4 TIMELY PREFETCHES:          0 LATE PREFETCHES: 0 DROPPED PREFETCHES: 0
PSCL4 PREFETCHES SAME FILL-ORIGIN LEVEL: 0 DIFFERENT FILL-ORIGIN LEVEL: 0

Revised Interactions: positive negative neutral
PSCL4_interactions 0 0 0 -nan -nan -nan
PSCL4_positive -nan -nan -nan
PSCL4_negative -nan -nan -nan -nan -nan
PSCL4_neutral -nan -nan -nan
PSCL3 TOTAL     ACCESS:      14987  HIT:      14986  MISS:          1  HIT %:    99.9933  MISS %: 0.00667245   MPKI: 2e-05
PSCL3 LOAD TRANSLATION ACCESS:      14987  HIT:      14986  MISS:          1  HIT %:    99.9933  MISS %: 0.00667245   MPKI: 2e-05
PSCL3 PREFETCH  REQUESTED:          0  ISSUED:          0  USEFUL:          0  USELESS:          0
PSCL3 USEFUL LOAD PREFETCHES:          0 PREFETCH ISSUED TO LOWER LEVEL:          0  ACCURACY: -nan
PSCL3 TIMELY PREFETCHES:          0 LATE PREFETCHES: 0 DROPPED PREFETCHES: 0
PSCL3 PREFETCHES SAME FILL-ORIGIN LEVEL: 0 DIFFERENT FILL-ORIGIN LEVEL: 0

Revised Interactions: positive negative neutral
PSCL3_interactions 0 0 0 -nan -nan -nan
PSCL3_positive -nan -nan -nan
PSCL3_negative -nan -nan -nan -nan -nan
PSCL3_neutral -nan -nan -nan
PSCL2 TOTAL     ACCESS:      14987  HIT:      14826  MISS:        161  HIT %:    98.9257  MISS %:    1.07426   MPKI: 0.00322
PSCL2 LOAD TRANSLATION ACCESS:      14987  HIT:      14826  MISS:        161  HIT %:    98.9257  MISS %:    1.07426   MPKI: 0.00322
PSCL2 PREFETCH  REQUESTED:          0  ISSUED:          0  USEFUL:          0  USELESS:          0
PSCL2 USEFUL LOAD PREFETCHES:          0 PREFETCH ISSUED TO LOWER LEVEL:          0  ACCURACY: -nan
PSCL2 TIMELY PREFETCHES:          0 LATE PREFETCHES: 0 DROPPED PREFETCHES: 0
PSCL2 PREFETCHES SAME FILL-ORIGIN LEVEL: 0 DIFFERENT FILL-ORIGIN LEVEL: 0

Revised Interactions: positive negative neutral
PSCL2_interactions 0 0 0 -nan -nan -nan
PSCL2_positive -nan -nan -nan
PSCL2_negative -nan -nan -nan -nan -nan
PSCL2_neutral -nan -nan -nan
LLC TOTAL     ACCESS:     932492  HIT:      14091  MISS:     918401  HIT %:    1.51111  MISS %:    98.4889   MPKI: 18.368
LLC LOAD      ACCESS:      16800  HIT:        323  MISS:      16477  HIT %:    1.92262  MISS %:    98.0774   MPKI: 0.32954
LLC RFO       ACCESS:          5  HIT:          0  MISS:          5  HIT %:          0  MISS %:        100   MPKI: 0.0001
LLC PREFETCH  ACCESS:     911736  HIT:      12271  MISS:     899465  HIT %:    1.34589  MISS %:    98.6541   MPKI: 17.9893
LLC WRITEBACK ACCESS:       1219  HIT:       1194  MISS:         25  HIT %:    97.9491  MISS %:    2.05086   MPKI: 0.0005
LLC LOAD TRANSLATION ACCESS:       2732  HIT:        303  MISS:       2429  HIT %:    11.0908  MISS %:    88.9092   MPKI: 0.04858
LLC PREFETCH  REQUESTED:          0  ISSUED:          0  USEFUL:        154  USELESS:     899211
LLC USEFUL LOAD PREFETCHES:        154 PREFETCH ISSUED TO LOWER LEVEL:     899465  ACCURACY: 0.0171213
LLC TIMELY PREFETCHES:        154 LATE PREFETCHES: 0 DROPPED PREFETCHES: 0
LLC PREFETCHES SAME FILL-ORIGIN LEVEL: 0 DIFFERENT FILL-ORIGIN LEVEL: 0
LLC AVERAGE MISS LATENCY: 78.121 cycles
LLC RQ	ACCESS:      19537	FORWARD:          0	MERGED:          0	TO_CACHE:      19537
LLC WQ	ACCESS:       1219	FORWARD:          0	MERGED:          0	TO_CACHE:       1219
LLC PQ	ACCESS:     911736	FORWARD:          0	MERGED:          0	TO_CACHE:     911736

Revised Interactions: positive negative neutral
LLC_interactions 60 898094 5205 0.00664188 99.4172 0.576183
LLC_positive 63.3333 0 36.6667
LLC_negative 0 0 0.000445388 0.614301 99.3853
LLC_neutral 100 0 0
LLC Dense regions hint to LLC: 0

RAW hits: 0
Loads Generated: 13899237
Loads sent to L1D: 13899237
Stores Generated: 4852705
Stores sent to L1D: 4852705
Major fault: 0 Minor fault: 30432
Allocated PAGES: 30432

stream: 
stream:times selected: 10652840
stream:pref_filled: 1938211
stream:pref_useful: 1610942
stream:pref_late: 6029
stream:misses: 15548
stream:misses_by_poll: 0

CS: 
CS:times selected: 4218346
CS:pref_filled: 177484
CS:pref_useful: 169451
CS:pref_late: 7697
CS:misses: 71371
CS:misses_by_poll: 831

CPLX: 
CPLX:times selected: 6426444
CPLX:pref_filled: 467766
CPLX:pref_useful: 364193
CPLX:pref_late: 1390
CPLX:misses: 112506
CPLX:misses_by_poll: 2055

NL_L1: 
NL:times selected: 48294
NL:pref_filled: 854
NL:pref_useful: 729
NL:pref_late: 29
NL:misses: 1869
NL:misses_by_poll: 0

total selections: 21345924
total_filled: 1299835
total_useful: 1074471
total_late: 15145
total_polluted: 2886
total_misses_after_warmup: 118387
conflicts: 0
Degree Incremented Times: 382814
Degree Decremented Times: 0

L1 IP Table Write Accesses: 10939709
L1 IP Table Read Accesses: 10939709
L1 RST Write Accesses: 5524727
L1 RST Read Accesses: 11049454
L1 CSPT Write Accesses: 5524727
L1 CSPT Read Accesses: 15050962
L1 RR Filter Tag Write Accesses: 3610019
L1 RR Filter Tag Read Accesses: 864752701
L1 IP Table Tag Write Accesses: 10944541
L1 IP Table Tag Read Accesses: 10944541
L1 RST Tag Write Accesses: 0
L1 RST Tag Read Accesses: 49395970
L1 RR Filter Write Accesses: 0
L1 RR Filter Read Accesses: 39468485
test: 1805408
L2 IP Table Read Accesses: 2210568
L2 IP Table Write Accesses: 2111201
L2 IP Table Tag Read Accesses: 1105284
L2 IP Table Tag Write Accesses: 1105284

DRAM Statistics
 CHANNEL 0
 RQ ROW_BUFFER_HIT:     854992  ROW_BUFFER_MISS:      63384
 DBUS_CONGESTED:         11
 WQ ROW_BUFFER_HIT:        141  ROW_BUFFER_MISS:       1077  FULL:          0

 AVG_CONGESTED_CYCLE: 4
 All warmup complete: 2
Channel 0 Bank busy for read cycles: 0
Channel 0 Bank busy for write cycles: 0
Channel 0
Rank 0
0banks busy for read cycles: 123795106
0banks busy for write cycles: 746
1banks busy for read cycles: 16831286
1banks busy for write cycles: 98195
2banks busy for read cycles: 5838883
2banks busy for write cycles: 23861
3banks busy for read cycles: 2085953
3banks busy for write cycles: 8670
4banks busy for read cycles: 919765
4banks busy for write cycles: 5565
5banks busy for read cycles: 504571
5banks busy for write cycles: 1787
6banks busy for read cycles: 465703
6banks busy for write cycles: 1703
7banks busy for read cycles: 982636
7banks busy for write cycles: 992
8banks busy for read cycles: 201995
8banks busy for write cycles: 318

CPU 0 Branch Prediction Accuracy: 92.2664% MPKI: 19.8292 Average ROB Occupancy at Mispredict: 30.5783
Branch types
NOT_BRANCH: 37179429 74.3589%
BRANCH_DIRECT_JUMP: 1079484 2.15897%
BRANCH_INDIRECT: 0 0%
BRANCH_CONDITIONAL: 10660557 21.3211%
BRANCH_DIRECT_CALL: 540081 1.08016%
BRANCH_INDIRECT_CALL: 0 0%
BRANCH_RETURN: 540082 1.08016%
BRANCH_OTHER: 0 0%

@sumon_overall_L1D   1074471     15452     15452    225365   1299835   7219974   7220006
@Sumon_Early_by_class_L1D    778276     80489    215344        23
@Sumon_Late_by_class_L1D      2585      6563      1273        23

@Sumon_Early_by_cycle_L1D     49998     94711     82433    123378    116147    410784     81329     36602     35663     39663      3245       518
@Sumon_Late_by_cycle_L1D      1374      5378      2892       753        47         0
@Sumon_Early_stream_L1D     28186     82809     60707     96506     92200    329205     22914     11082     22869     31413       385         0
@Sumon_Early_CS_L1D     18713      6945     13410     15688     10745      7024       265      2296      4063      1339         1         0
@Sumon_Early_CPLX_L1D      3048      4809      8217     11180     13200     74555     58145     23220      8726      6867      2859       518
@Sumon_Late_stream_L1D       861      1132       371       213         8         0
@Sumon_Late_CS_L1D       488      3051      2463       523        38         0
@Sumon_Late_CPLX_L1D        25      1176        57        14         1         0
@sumon_overall_L2C      7302        55         0    904412    911681   4314206   4314391
@Sumon_Early_by_class_L2C      6631       372       297         0
@Sumon_Late_by_class_L2C        22        27         0         0

@Sumon_Early_by_cycle_L2C       373       263       337       331       241       859       169         1         0         2      1488      3238
@Sumon_Late_by_cycle_L2C         6        16        16        16         1         0
@Sumon_Early_stream_L2C       282       240       304       300       223       827       168         1         0         2      1351      2933
@Sumon_Early_CS_L2C        91        23        33        31        18        32         1         0         0         0        42       101
@Sumon_Early_CPLX_L2C         0         0         0         0         0         0         0         0         0         0        95       202
@Sumon_Late_stream_L2C         0         6         6         9         1         0
@Sumon_Late_CS_L2C         0        10        10         7         0         0
@Sumon_Late_CPLX_L2C         0         0         0         0         0         0
DRAM PAGES: 1048576
Allocated PAGES: 30432
