
*** ChampSim Multicore Out-of-Order Simulator ***

Warmup Instructions: 50000000
Simulation Instructions: 50000000
Number of CPUs: 1
LLC sets: 2048
LLC ways: 16
Off-chip DRAM Size: 4096 MB Channels: 1 Width: 64-bit Data Rate: 6400 MT/s
CPU 0 runs ../../biswa/SPEC2017Traces/619.lbm_s-2676B.champsimtrace.xz
.xz
CPU 0 Bimodal branch predictor
BTB has LRU replacement policy
ITLB has LRU replacement policy
DTLB has LRU replacement policy
STLB has LRU replacement policy
L1I has LRU replacement policy
IP Table Entries: 256
L1D has LRU replacement policy
IP_Table L2 entries: 256
Initialize DRRIP state for L2C
LLC has LRU replacement policy
Heartbeat CPU 0 instructions: 10000003 cycles: 2893572 heartbeat IPC: 3.45594 cumulative IPC: 3.45594 (Simulation time: 0 hr 3 min 35 sec) 
Heartbeat CPU 0 instructions: 20000003 cycles: 5782554 heartbeat IPC: 3.46143 cumulative IPC: 3.45868 (Simulation time: 0 hr 7 min 2 sec) 
Heartbeat CPU 0 instructions: 30000003 cycles: 8663703 heartbeat IPC: 3.47084 cumulative IPC: 3.46272 (Simulation time: 0 hr 10 min 41 sec) 
Heartbeat CPU 0 instructions: 40000002 cycles: 11530831 heartbeat IPC: 3.48781 cumulative IPC: 3.46896 (Simulation time: 0 hr 14 min 15 sec) 
Heartbeat CPU 0 instructions: 50000001 cycles: 14385487 heartbeat IPC: 3.50305 cumulative IPC: 3.47573 (Simulation time: 0 hr 17 min 41 sec) 

Warmup complete CPU 0 instructions: 50000001 cycles: 14385487 (Simulation time: 0 hr 17 min 41 sec) 

Heartbeat CPU 0 instructions: 60000001 cycles: 29782589 heartbeat IPC: 0.649473 cumulative IPC: 0.649473 (Simulation time: 0 hr 22 min 43 sec) 
Heartbeat CPU 0 instructions: 70000002 cycles: 44456029 heartbeat IPC: 0.681504 cumulative IPC: 0.665103 (Simulation time: 0 hr 27 min 30 sec) 
Heartbeat CPU 0 instructions: 80000002 cycles: 58091343 heartbeat IPC: 0.73339 cumulative IPC: 0.686407 (Simulation time: 0 hr 30 min 59 sec) 
Heartbeat CPU 0 instructions: 90000001 cycles: 71726673 heartbeat IPC: 0.733389 cumulative IPC: 0.697579 (Simulation time: 0 hr 33 min 14 sec) 
Heartbeat CPU 0 instructions: 100000003 cycles: 84595802 heartbeat IPC: 0.777054 cumulative IPC: 0.712146 (Simulation time: 0 hr 34 min 34 sec) 
Finished CPU 0 instructions: 50000002 cycles: 70210315 cumulative IPC: 0.712146 (Simulation time: 0 hr 34 min 34 sec) 

ChampSim completed all CPUs

Region of Interest Statistics

CPU 0 cumulative IPC: 0.712146 instructions: 50000002 cycles: 70210315
ITLB TOTAL     ACCESS:    6593086  HIT:    6593086  MISS:          0  HIT %:        100  MISS %:          0   MPKI: 0
ITLB LOAD TRANSLATION ACCESS:    6593086  HIT:    6593086  MISS:          0  HIT %:        100  MISS %:          0   MPKI: 0
ITLB PREFETCH  REQUESTED:          0  ISSUED:          0  USEFUL:          0  USELESS:          0
ITLB USEFUL LOAD PREFETCHES:          0 PREFETCH ISSUED TO LOWER LEVEL:          0  ACCURACY: -nan
ITLB TIMELY PREFETCHES:          0 LATE PREFETCHES: 0 DROPPED PREFETCHES: 0
ITLB PREFETCHES SAME FILL-ORIGIN LEVEL: 0 DIFFERENT FILL-ORIGIN LEVEL: 0
ITLB AVERAGE MISS LATENCY: -nan cycles
ITLB RQ	ACCESS:    8574368	FORWARD:          0	MERGED:    1981283	TO_CACHE:    6593085

Revised Interactions: positive negative neutral
ITLB_interactions 0 0 0 -nan -nan -nan
ITLB_positive -nan -nan -nan
ITLB_negative -nan -nan -nan -nan -nan
ITLB_neutral -nan -nan -nan
DTLB TOTAL     ACCESS:    8742699  HIT:    8694927  MISS:      47772  HIT %:    99.4536  MISS %:   0.546422   MPKI: 0.95544
DTLB LOAD TRANSLATION ACCESS:    8742699  HIT:    8694927  MISS:      47772  HIT %:    99.4536  MISS %:   0.546422   MPKI: 0.95544
DTLB PREFETCH  REQUESTED:          0  ISSUED:          0  USEFUL:          0  USELESS:          0
DTLB USEFUL LOAD PREFETCHES:          0 PREFETCH ISSUED TO LOWER LEVEL:          0  ACCURACY: -nan
DTLB TIMELY PREFETCHES:          0 LATE PREFETCHES: 0 DROPPED PREFETCHES: 0
DTLB PREFETCHES SAME FILL-ORIGIN LEVEL: 0 DIFFERENT FILL-ORIGIN LEVEL: 0
DTLB AVERAGE MISS LATENCY: 107.463 cycles
DTLB RQ	ACCESS:   12493111	FORWARD:          0	MERGED:    3737510	TO_CACHE:    8755601

Revised Interactions: positive negative neutral
DTLB_interactions 0 0 0 -nan -nan -nan
DTLB_positive -nan -nan -nan
DTLB_negative -nan -nan -nan -nan -nan
DTLB_neutral -nan -nan -nan
STLB TOTAL     ACCESS:     321690  HIT:     295768  MISS:      25922  HIT %:    91.9419  MISS %:    8.05807   MPKI: 0.51844
STLB LOAD TRANSLATION ACCESS:      47772  HIT:      21850  MISS:      25922  HIT %:    45.7381  MISS %:    54.2619   MPKI: 0.51844
STLB TRANSLATION FROM L1D PREFETCHER ACCESS:     273918  HIT:     273918  MISS:          0  HIT %:        100  MISS %:          0   MPKI: 0
STLB PREFETCH  REQUESTED:          0  ISSUED:          0  USEFUL:          0  USELESS:          0
STLB USEFUL LOAD PREFETCHES:          0 PREFETCH ISSUED TO LOWER LEVEL:          0  ACCURACY: -nan
STLB TIMELY PREFETCHES:          0 LATE PREFETCHES: 0 DROPPED PREFETCHES: 0
STLB PREFETCHES SAME FILL-ORIGIN LEVEL: 0 DIFFERENT FILL-ORIGIN LEVEL: 0
STLB AVERAGE MISS LATENCY: 177.706 cycles
STLB RQ	ACCESS:     474169	FORWARD:          0	MERGED:     152479	TO_CACHE:     321690

Revised Interactions: positive negative neutral
STLB_interactions 0 0 0 -nan -nan -nan
STLB_positive -nan -nan -nan
STLB_negative -nan -nan -nan -nan -nan
STLB_neutral -nan -nan -nan
STLB Hit, L1D data hit: 0
STLB Hit, L2C data hit: 0
STLB Hit, LLC data hit: 0
STLB Hit, LLC data miss: 0
STLB STLB hints to L2: 0
L1D TOTAL     ACCESS:   12801799  HIT:   10065308  MISS:    2736491  HIT %:    78.6242  MISS %:    21.3758   MPKI: 54.7298
L1D LOAD      ACCESS:    4948413  HIT:    4865496  MISS:      82917  HIT %:    98.3244  MISS %:    1.67563   MPKI: 1.65834
L1D RFO       ACCESS:    7464162  HIT:    5142313  MISS:    2321849  HIT %:    68.8934  MISS %:    31.1066   MPKI: 46.437
L1D PREFETCH  ACCESS:     389224  HIT:      57499  MISS:     331725  HIT %:    14.7727  MISS %:    85.2273   MPKI: 6.6345
L1D PREFETCH  REQUESTED:     863400  ISSUED:     852796  USEFUL:     321815  USELESS:       9901
L1D USEFUL LOAD PREFETCHES:     321815 PREFETCH ISSUED TO LOWER LEVEL:     331861  ACCURACY: 96.9728
L1D TIMELY PREFETCHES:     321815 LATE PREFETCHES: 32381 DROPPED PREFETCHES: 0
L1D PREFETCHES SAME FILL-ORIGIN LEVEL: 331861 DIFFERENT FILL-ORIGIN LEVEL: 0
L1D AVERAGE MISS LATENCY: 331.392 cycles
L1D RQ	ACCESS:   11952463	FORWARD:          0	MERGED:    5336137	TO_CACHE:    4996123
L1D WQ	ACCESS:    8231582	FORWARD:    1620203	MERGED:     734594	TO_CACHE:    7496988
L1D PQ	ACCESS:     426399	FORWARD:          0	MERGED:          2	TO_CACHE:     426397

Revised Interactions: positive negative neutral
L1D_interactions 0 0 0 -nan -nan -nan
L1D_positive -nan -nan -nan
L1D_negative -nan -nan -nan -nan -nan
L1D_neutral -nan -nan -nan
L1D UNIQUE REGIONS ACCESSED: 0
L1D REGIONS CONFLICTS: 0
L1D Cross Page Prefetch Requests: 0
L1D Same Page Prefetch Requests: 994653
L1D ROI Sum of L1D PQ occupancy: 265265672
L1D PREFETCHES PUSHED FROM L2C: 0
L1I TOTAL     ACCESS:    8574367  HIT:    8574367  MISS:          0  HIT %:        100  MISS %:          0   MPKI: 0
L1I LOAD      ACCESS:    8574367  HIT:    8574367  MISS:          0  HIT %:        100  MISS %:          0   MPKI: 0
L1I PREFETCH  REQUESTED:          0  ISSUED:          0  USEFUL:          0  USELESS:          0
L1I USEFUL LOAD PREFETCHES:          0 PREFETCH ISSUED TO LOWER LEVEL:          0  ACCURACY: -nan
L1I TIMELY PREFETCHES:          0 LATE PREFETCHES: 0 DROPPED PREFETCHES: 0
L1I PREFETCHES SAME FILL-ORIGIN LEVEL: 0 DIFFERENT FILL-ORIGIN LEVEL: 0
L1I AVERAGE MISS LATENCY: -nan cycles
L1I RQ	ACCESS:   12173487	FORWARD:          0	MERGED:    3599119	TO_CACHE:    8574368

Revised Interactions: positive negative neutral
L1I_interactions 0 0 0 -nan -nan -nan
L1I_positive -nan -nan -nan
L1I_negative -nan -nan -nan -nan -nan
L1I_neutral -nan -nan -nan
BTB TOTAL     ACCESS:     696759  HIT:     696753  MISS:          6  HIT %:    99.9991  MISS %: 0.00086113   MPKI: 0.00012
BTB BRANCH_DIRECT_JUMP	ACCESS:      66227  HIT:      66226  MISS:          1
BTB BRANCH_INDIRECT	ACCESS:          0  HIT:          0  MISS:          0
BTB BRANCH_CONDITIONAL	ACCESS:     630532  HIT:     630527  MISS:          5
BTB BRANCH_DIRECT_CALL	ACCESS:          0  HIT:          0  MISS:          0
BTB BRANCH_INDIRECT_CALL	ACCESS:          0  HIT:          0  MISS:          0
BTB BRANCH_RETURN	ACCESS:          0  HIT:          0  MISS:          0
BTB BRANCH_OTHER ACCESS:          0  HIT:          0  MISS:          0

L2C TOTAL     ACCESS:    5562992  HIT:    3005923  MISS:    2557069  HIT %:    54.0343  MISS %:    45.9657   MPKI: 51.1414
L2C LOAD      ACCESS:      82917  HIT:      44596  MISS:      38321  HIT %:    53.7839  MISS %:    46.2161   MPKI: 0.76642
L2C DATA LOAD MPKI: 0.76642
L2C INSTRUCTION LOAD MPKI: 0
L2C RFO       ACCESS:    2321849  HIT:     997274  MISS:    1324575  HIT %:    42.9517  MISS %:    57.0483   MPKI: 26.4915
L2C PREFETCH  ACCESS:     810445  HIT:     428719  MISS:     381726  HIT %:    52.8992  MISS %:    47.1008   MPKI: 7.63452
L2C DATA PREFETCH MPKI: 7.63452
L2C INSTRUCTION PREFETCH MPKI: 0
L2C WRITEBACK ACCESS:    2321857  HIT:    1514404  MISS:     807453  HIT %:    65.2238  MISS %:    34.7762   MPKI: 16.1491
L2C LOAD TRANSLATION ACCESS:      25924  HIT:      20930  MISS:       4994  HIT %:     80.736  MISS %:     19.264   MPKI: 0.09988
L2C PREFETCH  REQUESTED:     720672  ISSUED:     720660  USEFUL:      44596  USELESS:     336971
L2C USEFUL LOAD PREFETCHES:      44596 PREFETCH ISSUED TO LOWER LEVEL:     387352  ACCURACY: 11.513
L2C TIMELY PREFETCHES:      44596 LATE PREFETCHES: 5623 DROPPED PREFETCHES: 0
L2C PREFETCHES SAME FILL-ORIGIN LEVEL: 261317 DIFFERENT FILL-ORIGIN LEVEL: 0
L2C AVERAGE MISS LATENCY: 391.783 cycles
L2C RQ	ACCESS:    2430702	FORWARD:          0	MERGED:          0	TO_CACHE:    2430702
L2C WQ	ACCESS:    2321861	FORWARD:          0	MERGED:          0	TO_CACHE:    2321861
L2C PQ	ACCESS:    1052386	FORWARD:          0	MERGED:     151809	TO_CACHE:     900577

Revised Interactions: positive negative neutral
L2C_interactions 44575 336537 168052 8.11688 61.2817 30.6014
L2C_positive 1.84857 74.5732 23.5782
L2C_negative 0.227612 0 4.28868 69.7073 25.7764
L2C_neutral 98.8997 1.10025 0
L2C Instructions Evicting Data 0
L2C Translations Evicting Data 4992
L2C Data Evicting Data 1741346
L2C Instructions Evicting Instructions 0
L2C Translations Evicting Instructions 0
L2C Data Evicting Instructions 0
L2C Instructions Evicting Translations 0
L2C Translations Evicting Translations 2
L2C Data Evicting Translations 3276
L2C Dense regions hint from L2: 0
PSCL5 TOTAL     ACCESS:      25922  HIT:      25922  MISS:          0  HIT %:        100  MISS %:          0   MPKI: 0
PSCL5 LOAD TRANSLATION ACCESS:      25922  HIT:      25922  MISS:          0  HIT %:        100  MISS %:          0   MPKI: 0
PSCL5 PREFETCH  REQUESTED:          0  ISSUED:          0  USEFUL:          0  USELESS:          0
PSCL5 USEFUL LOAD PREFETCHES:          0 PREFETCH ISSUED TO LOWER LEVEL:          0  ACCURACY: -nan
PSCL5 TIMELY PREFETCHES:          0 LATE PREFETCHES: 0 DROPPED PREFETCHES: 0
PSCL5 PREFETCHES SAME FILL-ORIGIN LEVEL: 0 DIFFERENT FILL-ORIGIN LEVEL: 0

Revised Interactions: positive negative neutral
PSCL5_interactions 0 0 0 -nan -nan -nan
PSCL5_positive -nan -nan -nan
PSCL5_negative -nan -nan -nan -nan -nan
PSCL5_neutral -nan -nan -nan
PSCL4 TOTAL     ACCESS:      25922  HIT:      25922  MISS:          0  HIT %:        100  MISS %:          0   MPKI: 0
PSCL4 LOAD TRANSLATION ACCESS:      25922  HIT:      25922  MISS:          0  HIT %:        100  MISS %:          0   MPKI: 0
PSCL4 PREFETCH  REQUESTED:          0  ISSUED:          0  USEFUL:          0  USELESS:          0
PSCL4 USEFUL LOAD PREFETCHES:          0 PREFETCH ISSUED TO LOWER LEVEL:          0  ACCURACY: -nan
PSCL4 TIMELY PREFETCHES:          0 LATE PREFETCHES: 0 DROPPED PREFETCHES: 0
PSCL4 PREFETCHES SAME FILL-ORIGIN LEVEL: 0 DIFFERENT FILL-ORIGIN LEVEL: 0

Revised Interactions: positive negative neutral
PSCL4_interactions 0 0 0 -nan -nan -nan
PSCL4_positive -nan -nan -nan
PSCL4_negative -nan -nan -nan -nan -nan
PSCL4_neutral -nan -nan -nan
PSCL3 TOTAL     ACCESS:      25922  HIT:      25922  MISS:          0  HIT %:        100  MISS %:          0   MPKI: 0
PSCL3 LOAD TRANSLATION ACCESS:      25922  HIT:      25922  MISS:          0  HIT %:        100  MISS %:          0   MPKI: 0
PSCL3 PREFETCH  REQUESTED:          0  ISSUED:          0  USEFUL:          0  USELESS:          0
PSCL3 USEFUL LOAD PREFETCHES:          0 PREFETCH ISSUED TO LOWER LEVEL:          0  ACCURACY: -nan
PSCL3 TIMELY PREFETCHES:          0 LATE PREFETCHES: 0 DROPPED PREFETCHES: 0
PSCL3 PREFETCHES SAME FILL-ORIGIN LEVEL: 0 DIFFERENT FILL-ORIGIN LEVEL: 0

Revised Interactions: positive negative neutral
PSCL3_interactions 0 0 0 -nan -nan -nan
PSCL3_positive -nan -nan -nan
PSCL3_negative -nan -nan -nan -nan -nan
PSCL3_neutral -nan -nan -nan
PSCL2 TOTAL     ACCESS:      25922  HIT:      25895  MISS:         27  HIT %:    99.8958  MISS %:   0.104159   MPKI: 0.00054
PSCL2 LOAD TRANSLATION ACCESS:      25922  HIT:      25895  MISS:         27  HIT %:    99.8958  MISS %:   0.104159   MPKI: 0.00054
PSCL2 PREFETCH  REQUESTED:          0  ISSUED:          0  USEFUL:          0  USELESS:          0
PSCL2 USEFUL LOAD PREFETCHES:          0 PREFETCH ISSUED TO LOWER LEVEL:          0  ACCURACY: -nan
PSCL2 TIMELY PREFETCHES:          0 LATE PREFETCHES: 0 DROPPED PREFETCHES: 0
PSCL2 PREFETCHES SAME FILL-ORIGIN LEVEL: 0 DIFFERENT FILL-ORIGIN LEVEL: 0

Revised Interactions: positive negative neutral
PSCL2_interactions 0 0 0 -nan -nan -nan
PSCL2_positive -nan -nan -nan
PSCL2_negative -nan -nan -nan -nan -nan
PSCL2_neutral -nan -nan -nan
LLC TOTAL     ACCESS:    3074748  HIT:    1412526  MISS:    1662222  HIT %:    45.9396  MISS %:    54.0604   MPKI: 33.2444
LLC LOAD      ACCESS:      32698  HIT:        462  MISS:      32236  HIT %:    1.41293  MISS %:    98.5871   MPKI: 0.64472
LLC RFO       ACCESS:    1324481  HIT:      80655  MISS:    1243826  HIT %:    6.08956  MISS %:    93.9104   MPKI: 24.8765
LLC PREFETCH  ACCESS:     387349  HIT:       4939  MISS:     382410  HIT %:    1.27508  MISS %:    98.7249   MPKI: 7.6482
LLC WRITEBACK ACCESS:    1325226  HIT:    1324751  MISS:        475  HIT %:    99.9642  MISS %:  0.0358429   MPKI: 0.0095
LLC LOAD TRANSLATION ACCESS:       4994  HIT:       1719  MISS:       3275  HIT %:    34.4213  MISS %:    65.5787   MPKI: 0.0655
LLC PREFETCH  REQUESTED:          0  ISSUED:          0  USEFUL:        458  USELESS:     381184
LLC USEFUL LOAD PREFETCHES:        458 PREFETCH ISSUED TO LOWER LEVEL:     382413  ACCURACY: 0.119766
LLC TIMELY PREFETCHES:        458 LATE PREFETCHES: 0 DROPPED PREFETCHES: 0
LLC PREFETCHES SAME FILL-ORIGIN LEVEL: 0 DIFFERENT FILL-ORIGIN LEVEL: 0
LLC AVERAGE MISS LATENCY: 572.115 cycles
LLC RQ	ACCESS:    1362279	FORWARD:          0	MERGED:          0	TO_CACHE:    1362185
LLC WQ	ACCESS:    1325230	FORWARD:         94	MERGED:          0	TO_CACHE:    1325230
LLC PQ	ACCESS:     387352	FORWARD:          0	MERGED:          0	TO_CACHE:     387352

Revised Interactions: positive negative neutral
LLC_interactions 716 381542 300181 0.104918 55.9086 43.9865
LLC_positive 36.0335 42.8771 21.0894
LLC_negative 0 0 0 78.9274 21.0726
LLC_neutral 100 0 0
LLC Dense regions hint to LLC: 0

RAW hits: 330055
Loads Generated: 12282518
Loads sent to L1D: 11952463
Stores Generated: 8231569
Stores sent to L1D: 8231582
Major fault: 0 Minor fault: 32663
Allocated PAGES: 32663

stream: 
stream:times selected: 3665367
stream:pref_filled: 150766
stream:pref_useful: 142276
stream:pref_late: 14328
stream:misses: 30660
stream:misses_by_poll: 0

CS: 
CS:times selected: 543528
CS:pref_filled: 345524
CS:pref_useful: 341852
CS:pref_late: 5107
CS:misses: 37226
CS:misses_by_poll: 1668

CPLX: 
CPLX:times selected: 3118670
CPLX:pref_filled: 346315
CPLX:pref_useful: 342626
CPLX:pref_late: 7683
CPLX:misses: 86746
CPLX:misses_by_poll: 969

NL_L1: 
NL:times selected: 1962
NL:pref_filled: 142
NL:pref_useful: 128
NL:pref_late: 28
NL:misses: 125
NL:misses_by_poll: 0

total selections: 7329527
total_filled: 331725
total_useful: 321815
total_late: 27147
total_polluted: 2637
total_misses_after_warmup: 130627
conflicts: 121389
Degree Incremented Times: 125886
Degree Decremented Times: 0

L1 IP Table Write Accesses: 4443448
L1 IP Table Read Accesses: 4322059
L1 RST Write Accesses: 1698978
L1 RST Read Accesses: 3397956
L1 CSPT Write Accesses: 1698978
L1 CSPT Read Accesses: 5490697
L1 RR Filter Tag Write Accesses: 437003
L1 RR Filter Tag Read Accesses: 286780874
L1 IP Table Tag Write Accesses: 4996123
L1 IP Table Tag Read Accesses: 4996123
L1 RST Tag Write Accesses: 0
L1 RST Tag Read Accesses: 15343470
L1 RR Filter Write Accesses: 0
L1 RR Filter Read Accesses: 13078785
test: 482881
L2 IP Table Read Accesses: 733483
L2 IP Table Write Accesses: 650716
L2 IP Table Tag Read Accesses: 366926
L2 IP Table Tag Write Accesses: 366926

DRAM Statistics
 CHANNEL 0
 RQ ROW_BUFFER_HIT:     158711  ROW_BUFFER_MISS:    1503036
 DBUS_CONGESTED:          0
 WQ ROW_BUFFER_HIT:     271825  ROW_BUFFER_MISS:     973017  FULL:          0

 AVG_CONGESTED_CYCLE: -
 All warmup complete: 2
Channel 0 Bank busy for read cycles: 0
Channel 0 Bank busy for write cycles: 0
Channel 0
Rank 0
0banks busy for read cycles: 13792
0banks busy for write cycles: 0
1banks busy for read cycles: 714219
1banks busy for write cycles: 125286
2banks busy for read cycles: 1501032
2banks busy for write cycles: 125280
3banks busy for read cycles: 2583666
3banks busy for write cycles: 125277
4banks busy for read cycles: 2925396
4banks busy for write cycles: 125273
5banks busy for read cycles: 6409957
5banks busy for write cycles: 125270
6banks busy for read cycles: 7702023
6banks busy for write cycles: 125489
7banks busy for read cycles: 9896691
7banks busy for write cycles: 1374439
8banks busy for read cycles: 12064001
8banks busy for write cycles: 24273225

CPU 0 Branch Prediction Accuracy: 96.9529% MPKI: 0.42462 Average ROB Occupancy at Mispredict: 145.27
Branch types
NOT_BRANCH: 49302902 98.6058%
BRANCH_DIRECT_JUMP: 66227 0.132454%
BRANCH_INDIRECT: 0 0%
BRANCH_CONDITIONAL: 630542 1.26108%
BRANCH_DIRECT_CALL: 0 0%
BRANCH_INDIRECT_CALL: 0 0%
BRANCH_RETURN: 0 0%
BRANCH_OTHER: 0 0%

@sumon_overall_L1D    321815     32381     32381      9901    331725    852796    863400
@Sumon_Early_by_class_L1D     44377    183001     94386         9
@Sumon_Late_by_class_L1D      5515      4736      6501         9

@Sumon_Early_by_cycle_L1D     15917     16840     17227     34575     21650    147953     62351      5285        17         0         0         0
@Sumon_Late_by_cycle_L1D      1492      1177       940      1341      8760      3052
@Sumon_Early_stream_L1D      4642      6474      4371     11552      4500     12823        15         0         0         0         0         0
@Sumon_Early_CS_L1D      5873      5801      6796     14002      8213     98205     44048        63         0         0         0         0
@Sumon_Early_CPLX_L1D      5400      4558      6057      9013      8933     36901     18286      5221        17         0         0         0
@Sumon_Late_stream_L1D       437       406       260       440      2939      1033
@Sumon_Late_CS_L1D       525       325       287       331      2114      1154
@Sumon_Late_CPLX_L1D       530       445       393       570      3701       862
@sumon_overall_L2C     44596      5623         0    336971    381726    720660    720672
@Sumon_Early_by_class_L2C     12340     32249         0         0
@Sumon_Late_by_class_L2C      3984      1590         0         0

@Sumon_Early_by_cycle_L2C      2879      1749      3659      5140      2715     20813      7628        13         0         0         0         0
@Sumon_Late_by_cycle_L2C        49       116       453       157      3024      1824
@Sumon_Early_stream_L2C      2208      1360      2518      3090      1155      2001         8         0         0         0         0         0
@Sumon_Early_CS_L2C       671       389      1141      2050      1560     18810      7615        13         0         0         0         0
@Sumon_Early_CPLX_L2C         0         0         0         0         0         0         0         0         0         0         0         0
@Sumon_Late_stream_L2C         0        85       336       132      2289      1142
@Sumon_Late_CS_L2C         0        31       117        25       735       682
@Sumon_Late_CPLX_L2C         0         0         0         0         0         0
DRAM PAGES: 1048576
Allocated PAGES: 32663
