
*** ChampSim Multicore Out-of-Order Simulator ***

Warmup Instructions: 10000000
Simulation Instructions: 50000000
Number of CPUs: 1
LLC sets: 2048
LLC ways: 16
Off-chip DRAM Size: 4096 MB Channels: 1 Width: 64-bit Data Rate: 6400 MT/s
CPU 0 runs traces/SPEC2017/600.perlbench_s-570B.champsimtrace.xz
.xz
CPU 0 Bimodal branch predictor
BTB has LRU replacement policy
ITLB has LRU replacement policy
DTLB has LRU replacement policy
STLB has LRU replacement policy
L1I has LRU replacement policy
IP Table Entries: 256
Initialize DRRIP state for L1D
IP_Table L2 entries: 256
Initialize DRRIP state for L2C
Initialize DRRIP state for LLC
Heartbeat CPU 0 instructions: 10000003 cycles: 2893583 heartbeat IPC: 3.45592 cumulative IPC: 3.45592 (Simulation time: 0 hr 10 min 28 sec) 

Warmup complete CPU 0 instructions: 10000003 cycles: 2893583 (Simulation time: 0 hr 10 min 28 sec) 

Heartbeat CPU 0 instructions: 20000003 cycles: 18673371 heartbeat IPC: 0.633722 cumulative IPC: 0.633722 (Simulation time: 0 hr 20 min 4 sec) 
Heartbeat CPU 0 instructions: 30000002 cycles: 35030793 heartbeat IPC: 0.611343 cumulative IPC: 0.622332 (Simulation time: 0 hr 30 min 4 sec) 
Heartbeat CPU 0 instructions: 40000000 cycles: 51075113 heartbeat IPC: 0.623273 cumulative IPC: 0.622645 (Simulation time: 0 hr 39 min 22 sec) 
Heartbeat CPU 0 instructions: 50000003 cycles: 66525823 heartbeat IPC: 0.64722 cumulative IPC: 0.628612 (Simulation time: 0 hr 48 min 42 sec) 
Heartbeat CPU 0 instructions: 60000000 cycles: 81725526 heartbeat IPC: 0.657907 cumulative IPC: 0.634261 (Simulation time: 0 hr 57 min 1 sec) 
Finished CPU 0 instructions: 50000001 cycles: 78831944 cumulative IPC: 0.634261 (Simulation time: 0 hr 57 min 1 sec) 

ChampSim completed all CPUs

Region of Interest Statistics

CPU 0 cumulative IPC: 0.634261 instructions: 50000001 cycles: 78831944
ITLB TOTAL     ACCESS:    7354585  HIT:    7354396  MISS:        189  HIT %:    99.9974  MISS %: 0.00256983   MPKI: 0.00378
ITLB LOAD TRANSLATION ACCESS:    7354585  HIT:    7354396  MISS:        189  HIT %:    99.9974  MISS %: 0.00256983   MPKI: 0.00378
ITLB PREFETCH  REQUESTED:          0  ISSUED:          0  USEFUL:          0  USELESS:          0
ITLB USEFUL LOAD PREFETCHES:          0 PREFETCH ISSUED TO LOWER LEVEL:          0  ACCURACY: -nan
ITLB TIMELY PREFETCHES:          0 LATE PREFETCHES: 0 DROPPED PREFETCHES: 0
ITLB PREFETCHES SAME FILL-ORIGIN LEVEL: 0 DIFFERENT FILL-ORIGIN LEVEL: 0
ITLB AVERAGE MISS LATENCY: 11.1323 cycles
ITLB RQ	ACCESS:    8343825	FORWARD:          0	MERGED:     989197	TO_CACHE:    7354628

DTLB TOTAL     ACCESS:   12653409  HIT:   12619498  MISS:      33911  HIT %:     99.732  MISS %:   0.267999   MPKI: 0.67822
DTLB LOAD TRANSLATION ACCESS:   12653409  HIT:   12619498  MISS:      33911  HIT %:     99.732  MISS %:   0.267999   MPKI: 0.67822
DTLB PREFETCH  REQUESTED:          0  ISSUED:          0  USEFUL:          0  USELESS:          0
DTLB USEFUL LOAD PREFETCHES:          0 PREFETCH ISSUED TO LOWER LEVEL:          0  ACCURACY: -nan
DTLB TIMELY PREFETCHES:          0 LATE PREFETCHES: 0 DROPPED PREFETCHES: 0
DTLB PREFETCHES SAME FILL-ORIGIN LEVEL: 0 DIFFERENT FILL-ORIGIN LEVEL: 0
DTLB AVERAGE MISS LATENCY: 10.5103 cycles
DTLB RQ	ACCESS:   19242750	FORWARD:          0	MERGED:    6589158	TO_CACHE:   12653592

STLB TOTAL     ACCESS:     100060  HIT:      99751  MISS:        309  HIT %:    99.6912  MISS %:   0.308815   MPKI: 0.00618
STLB LOAD TRANSLATION ACCESS:      34100  HIT:      33791  MISS:        309  HIT %:    99.0938  MISS %:   0.906158   MPKI: 0.00618
STLB TRANSLATION FROM L1D PREFETCHER ACCESS:      65960  HIT:      65960  MISS:          0  HIT %:        100  MISS %:          0   MPKI: 0
STLB PREFETCH  REQUESTED:          0  ISSUED:          0  USEFUL:          0  USELESS:          0
STLB USEFUL LOAD PREFETCHES:          0 PREFETCH ISSUED TO LOWER LEVEL:          0  ACCURACY: -nan
STLB TIMELY PREFETCHES:          0 LATE PREFETCHES: 0 DROPPED PREFETCHES: 0
STLB PREFETCHES SAME FILL-ORIGIN LEVEL: 0 DIFFERENT FILL-ORIGIN LEVEL: 0
STLB AVERAGE MISS LATENCY: 165.744 cycles
STLB RQ	ACCESS:     112474	FORWARD:          0	MERGED:      12414	TO_CACHE:     100060

STLB Hit, L1D data hit: 0
STLB Hit, L2C data hit: 0
STLB Hit, LLC data hit: 0
STLB Hit, LLC data miss: 0
STLB STLB hints to L2: 0
L1D TOTAL     ACCESS:   19320305  HIT:   19312515  MISS:       7790  HIT %:    99.9597  MISS %:  0.0403203   MPKI: 0.1558
L1D LOAD      ACCESS:    8507470  HIT:    8503919  MISS:       3551  HIT %:    99.9583  MISS %:  0.0417398   MPKI: 0.07102
L1D RFO       ACCESS:   10734562  HIT:   10734362  MISS:        200  HIT %:    99.9981  MISS %: 0.00186314   MPKI: 0.004
L1D PREFETCH  ACCESS:      78273  HIT:      74234  MISS:       4039  HIT %:    94.8399  MISS %:    5.16014   MPKI: 0.08078
L1D PREFETCH  REQUESTED:     156748  ISSUED:     156748  USEFUL:        962  USELESS:       3038
L1D USEFUL LOAD PREFETCHES:        962 PREFETCH ISSUED TO LOWER LEVEL:       4105  ACCURACY: 23.4348
L1D TIMELY PREFETCHES:        962 LATE PREFETCHES: 66 DROPPED PREFETCHES: 0
L1D PREFETCHES SAME FILL-ORIGIN LEVEL: 4105 DIFFERENT FILL-ORIGIN LEVEL: 0
L1D AVERAGE MISS LATENCY: 352655 cycles
L1D RQ	ACCESS:   10818817	FORWARD:          0	MERGED:    1977779	TO_CACHE:    8507880
L1D WQ	ACCESS:   10830029	FORWARD:     333158	MERGED:      95159	TO_CACHE:   10734870
L1D PQ	ACCESS:      78374	FORWARD:          0	MERGED:          0	TO_CACHE:      78374

L1D UNIQUE REGIONS ACCESSED: 0
L1D REGIONS CONFLICTS: 0
L1D Cross Page Prefetch Requests: 0
L1D Same Page Prefetch Requests: 171092
L1D ROI Sum of L1D PQ occupancy: 1019495
L1D PREFETCHES PUSHED FROM L2C: 0
L1I TOTAL     ACCESS:    8343333  HIT:    8341447  MISS:       1886  HIT %:    99.9774  MISS %:  0.0226049   MPKI: 0.03772
L1I LOAD      ACCESS:    8343333  HIT:    8341447  MISS:       1886  HIT %:    99.9774  MISS %:  0.0226049   MPKI: 0.03772
L1I PREFETCH  REQUESTED:          0  ISSUED:          0  USEFUL:          0  USELESS:          0
L1I USEFUL LOAD PREFETCHES:          0 PREFETCH ISSUED TO LOWER LEVEL:          0  ACCURACY: -nan
L1I TIMELY PREFETCHES:          0 LATE PREFETCHES: 0 DROPPED PREFETCHES: 0
L1I PREFETCHES SAME FILL-ORIGIN LEVEL: 0 DIFFERENT FILL-ORIGIN LEVEL: 0
L1I AVERAGE MISS LATENCY: 27.8324 cycles
L1I RQ	ACCESS:   13352829	FORWARD:          0	MERGED:    5009004	TO_CACHE:    8343825

BTB TOTAL     ACCESS:    4994041  HIT:    4730753  MISS:     263288  HIT %:     94.728  MISS %:    5.27204   MPKI: 5.26576
BTB BRANCH_DIRECT_JUMP	ACCESS:    1003467  HIT:    1003316  MISS:        151
BTB BRANCH_INDIRECT	ACCESS:     365932  HIT:     110976  MISS:     254956
BTB BRANCH_CONDITIONAL	ACCESS:    2901535  HIT:    2901105  MISS:        430
BTB BRANCH_DIRECT_CALL	ACCESS:     355129  HIT:     355070  MISS:         59
BTB BRANCH_INDIRECT_CALL	ACCESS:       6424  HIT:       3196  MISS:       3228
BTB BRANCH_RETURN	ACCESS:     361554  HIT:     357090  MISS:       4464
BTB BRANCH_OTHER ACCESS:          0  HIT:          0  MISS:          0

L2C TOTAL     ACCESS:      11262  HIT:       4807  MISS:       6455  HIT %:    42.6834  MISS %:    57.3166   MPKI: 0.1291
L2C LOAD      ACCESS:       5371  HIT:       2203  MISS:       3168  HIT %:    41.0166  MISS %:    58.9834   MPKI: 0.06336
L2C DATA LOAD MPKI: 0.05978
L2C INSTRUCTION LOAD MPKI: 0.00358
L2C RFO       ACCESS:        200  HIT:         56  MISS:        144  HIT %:         28  MISS %:         72   MPKI: 0.00288
L2C PREFETCH  ACCESS:       4759  HIT:       1710  MISS:       3049  HIT %:    35.9319  MISS %:    64.0681   MPKI: 0.06098
L2C DATA PREFETCH MPKI: 0.06098
L2C INSTRUCTION PREFETCH MPKI: 0
L2C WRITEBACK ACCESS:        616  HIT:        607  MISS:          9  HIT %:     98.539  MISS %:    1.46104   MPKI: 0.00018
L2C LOAD TRANSLATION ACCESS:        316  HIT:        231  MISS:         85  HIT %:    73.1013  MISS %:    26.8987   MPKI: 0.0017
L2C PREFETCH  REQUESTED:        800  ISSUED:        800  USEFUL:        239  USELESS:        926
L2C USEFUL LOAD PREFETCHES:        239 PREFETCH ISSUED TO LOWER LEVEL:       3051  ACCURACY: 7.8335
L2C TIMELY PREFETCHES:        239 LATE PREFETCHES: 2 DROPPED PREFETCHES: 0
L2C PREFETCHES SAME FILL-ORIGIN LEVEL: 329 DIFFERENT FILL-ORIGIN LEVEL: 0
L2C AVERAGE MISS LATENCY: 156.809 cycles
L2C RQ	ACCESS:       5887	FORWARD:          0	MERGED:          0	TO_CACHE:       5887
L2C WQ	ACCESS:        616	FORWARD:          0	MERGED:          0	TO_CACHE:        616
L2C PQ	ACCESS:       4905	FORWARD:          0	MERGED:         69	TO_CACHE:       4836

L2C Instructions Evicting Data 54
L2C Translations Evicting Data 24
L2C Data Evicting Data 1710
L2C Instructions Evicting Instructions 15
L2C Translations Evicting Instructions 1
L2C Data Evicting Instructions 300
L2C Instructions Evicting Translations 0
L2C Translations Evicting Translations 0
L2C Data Evicting Translations 46
L2C Dense regions hint from L2: 0
PSCL5 TOTAL     ACCESS:        309  HIT:        309  MISS:          0  HIT %:        100  MISS %:          0   MPKI: 0
PSCL5 LOAD TRANSLATION ACCESS:        309  HIT:        309  MISS:          0  HIT %:        100  MISS %:          0   MPKI: 0
PSCL5 PREFETCH  REQUESTED:          0  ISSUED:          0  USEFUL:          0  USELESS:          0
PSCL5 USEFUL LOAD PREFETCHES:          0 PREFETCH ISSUED TO LOWER LEVEL:          0  ACCURACY: -nan
PSCL5 TIMELY PREFETCHES:          0 LATE PREFETCHES: 0 DROPPED PREFETCHES: 0
PSCL5 PREFETCHES SAME FILL-ORIGIN LEVEL: 0 DIFFERENT FILL-ORIGIN LEVEL: 0

PSCL4 TOTAL     ACCESS:        309  HIT:        309  MISS:          0  HIT %:        100  MISS %:          0   MPKI: 0
PSCL4 LOAD TRANSLATION ACCESS:        309  HIT:        309  MISS:          0  HIT %:        100  MISS %:          0   MPKI: 0
PSCL4 PREFETCH  REQUESTED:          0  ISSUED:          0  USEFUL:          0  USELESS:          0
PSCL4 USEFUL LOAD PREFETCHES:          0 PREFETCH ISSUED TO LOWER LEVEL:          0  ACCURACY: -nan
PSCL4 TIMELY PREFETCHES:          0 LATE PREFETCHES: 0 DROPPED PREFETCHES: 0
PSCL4 PREFETCHES SAME FILL-ORIGIN LEVEL: 0 DIFFERENT FILL-ORIGIN LEVEL: 0

PSCL3 TOTAL     ACCESS:        309  HIT:        309  MISS:          0  HIT %:        100  MISS %:          0   MPKI: 0
PSCL3 LOAD TRANSLATION ACCESS:        309  HIT:        309  MISS:          0  HIT %:        100  MISS %:          0   MPKI: 0
PSCL3 PREFETCH  REQUESTED:          0  ISSUED:          0  USEFUL:          0  USELESS:          0
PSCL3 USEFUL LOAD PREFETCHES:          0 PREFETCH ISSUED TO LOWER LEVEL:          0  ACCURACY: -nan
PSCL3 TIMELY PREFETCHES:          0 LATE PREFETCHES: 0 DROPPED PREFETCHES: 0
PSCL3 PREFETCHES SAME FILL-ORIGIN LEVEL: 0 DIFFERENT FILL-ORIGIN LEVEL: 0

PSCL2 TOTAL     ACCESS:        309  HIT:        296  MISS:         13  HIT %:    95.7929  MISS %:    4.20712   MPKI: 0.00026
PSCL2 LOAD TRANSLATION ACCESS:        309  HIT:        296  MISS:         13  HIT %:    95.7929  MISS %:    4.20712   MPKI: 0.00026
PSCL2 PREFETCH  REQUESTED:          0  ISSUED:          0  USEFUL:          0  USELESS:          0
PSCL2 USEFUL LOAD PREFETCHES:          0 PREFETCH ISSUED TO LOWER LEVEL:          0  ACCURACY: -nan
PSCL2 TIMELY PREFETCHES:          0 LATE PREFETCHES: 0 DROPPED PREFETCHES: 0
PSCL2 PREFETCHES SAME FILL-ORIGIN LEVEL: 0 DIFFERENT FILL-ORIGIN LEVEL: 0

LLC TOTAL     ACCESS:       6615  HIT:        248  MISS:       6367  HIT %:    3.74906  MISS %:    96.2509   MPKI: 0.12734
LLC LOAD      ACCESS:       3166  HIT:         50  MISS:       3116  HIT %:    1.57928  MISS %:    98.4207   MPKI: 0.06232
LLC RFO       ACCESS:        144  HIT:          4  MISS:        140  HIT %:    2.77778  MISS %:    97.2222   MPKI: 0.0028
LLC PREFETCH  ACCESS:       3051  HIT:         20  MISS:       3031  HIT %:   0.655523  MISS %:    99.3445   MPKI: 0.06062
LLC WRITEBACK ACCESS:        169  HIT:        169  MISS:          0  HIT %:        100  MISS %:          0   MPKI: 0
LLC LOAD TRANSLATION ACCESS:         85  HIT:          5  MISS:         80  HIT %:    5.88235  MISS %:    94.1176   MPKI: 0.0016
LLC PREFETCH  REQUESTED:          0  ISSUED:          0  USEFUL:          2  USELESS:         44
LLC USEFUL LOAD PREFETCHES:          2 PREFETCH ISSUED TO LOWER LEVEL:       3031  ACCURACY: 0.0659848
LLC TIMELY PREFETCHES:          2 LATE PREFETCHES: 0 DROPPED PREFETCHES: 0
LLC PREFETCHES SAME FILL-ORIGIN LEVEL: 0 DIFFERENT FILL-ORIGIN LEVEL: 0
LLC AVERAGE MISS LATENCY: 128.242 cycles
LLC RQ	ACCESS:       3395	FORWARD:          0	MERGED:          0	TO_CACHE:       3395
LLC WQ	ACCESS:        169	FORWARD:          0	MERGED:          0	TO_CACHE:        169
LLC PQ	ACCESS:       3051	FORWARD:          0	MERGED:          0	TO_CACHE:       3051

LLC Dense regions hint to LLC: 0

RAW hits: 778113
Loads Generated: 11596922
Loads sent to L1D: 10818817
Stores Generated: 10830023
Stores sent to L1D: 10830029
Major fault: 0 Minor fault: 672
Allocated PAGES: 672

stream: 
stream:times selected: 771793
stream:pref_filled: 3199
stream:pref_useful: 976
stream:pref_late: 60
stream:misses: 185
stream:misses_by_poll: 0

CS: 
CS:times selected: 18208
CS:pref_filled: 380
CS:pref_useful: 180
CS:pref_late: 0
CS:misses: 13
CS:misses_by_poll: 0

CPLX: 
CPLX:times selected: 768316
CPLX:pref_filled: 2292
CPLX:pref_useful: 206
CPLX:pref_late: 7
CPLX:misses: 1648
CPLX:misses_by_poll: 1

NL_L1: 
NL:times selected: 645
NL:pref_filled: 17
NL:pref_useful: 3
NL:pref_late: 0
NL:misses: 11
NL:misses_by_poll: 0

total selections: 1558962
total_filled: 4039
total_useful: 962
total_late: 69
total_polluted: 1
total_misses_after_warmup: 3964
conflicts: 121680
Degree Incremented Times: 0
Degree Decremented Times: 154002

L1 IP Table Write Accesses: 7566327
L1 IP Table Read Accesses: 7444647
L1 RST Write Accesses: 646251
L1 RST Read Accesses: 1292502
L1 CSPT Write Accesses: 646251
L1 CSPT Read Accesses: 1292445
L1 RR Filter Tag Write Accesses: 78374
L1 RR Filter Tag Read Accesses: 20435498
L1 IP Table Tag Write Accesses: 8507883
L1 IP Table Tag Read Accesses: 8507883
L1 RST Tag Write Accesses: 0
L1 RST Tag Read Accesses: 9048411
L1 RR Filter Write Accesses: 0
L1 RR Filter Read Accesses: 1141866
test: 9375
L2 IP Table Read Accesses: 14233
L2 IP Table Write Accesses: 11673
L2 IP Table Tag Read Accesses: 7518
L2 IP Table Tag Write Accesses: 7518

DRAM Statistics
 CHANNEL 0
 RQ ROW_BUFFER_HIT:       2874  ROW_BUFFER_MISS:       3493
 DBUS_CONGESTED:          0
 WQ ROW_BUFFER_HIT:          0  ROW_BUFFER_MISS:          0  FULL:          0

 AVG_CONGESTED_CYCLE: -
 All warmup complete: 2
Channel 0 Bank busy for read cycles: 0
Channel 0 Bank busy for write cycles: 0
Channel 0
Rank 0
0banks busy for read cycles: 78381175
0banks busy for write cycles: 0
1banks busy for read cycles: 289194
1banks busy for write cycles: 0
2banks busy for read cycles: 121346
2banks busy for write cycles: 0
3banks busy for read cycles: 29805
3banks busy for write cycles: 0
4banks busy for read cycles: 6939
4banks busy for write cycles: 0
5banks busy for read cycles: 2462
5banks busy for write cycles: 0
6banks busy for read cycles: 884
6banks busy for write cycles: 0
7banks busy for read cycles: 140
7banks busy for write cycles: 0
8banks busy for read cycles: 0
8banks busy for write cycles: 0

CPU 0 Branch Prediction Accuracy: 97.8399% MPKI: 3.0284 Average ROB Occupancy at Mispredict: 45.9399
Branch types
NOT_BRANCH: 42989829 85.9797%
BRANCH_DIRECT_JUMP: 1003467 2.00693%
BRANCH_INDIRECT: 365932 0.731864%
BRANCH_CONDITIONAL: 4917335 9.83467%
BRANCH_DIRECT_CALL: 355129 0.710258%
BRANCH_INDIRECT_CALL: 6424 0.012848%
BRANCH_RETURN: 361554 0.723108%
BRANCH_OTHER: 0 0%

@sumon_overall_L1D       962        66      3038      4039    156748    156748
@Sumon_Early_by_class_L1D       725        73       152         0
@Sumon_Late_by_class_L1D        57         0         7         0

@Sumon_Early_by_cycle_L1D       149        96        56        41        47       154        94        20        29        31        48       197
@Sumon_Late_by_cycle_L1D        40        26         0         0         0         0         0         0         0         0         0         0
@Sumon_Early_stream_L1D       133        87        49        30        41       118        64        14        27        27        35       100
@Sumon_Early_CS_L1D         0         2         0         6         1         7        15         0         0         1        10        31
@Sumon_Early_CPLX_L1D         9         7         7         4         4        27        15         6         2         3         2        66
@Sumon_Late_stream_L1D        32        25         0         0         0         0         0         0         0         0         0         0
@Sumon_Late_CS_L1D         0         0         0         0         0         0         0         0         0         0         0         0
@Sumon_Late_CPLX_L1D         6         1         0         0         0         0         0         0         0         0         0         0
@sumon_overall_L2C       239         2       926      3049       800       800
@Sumon_Early_by_class_L2C        88        35        48         0
@Sumon_Late_by_class_L2C         0         0         0         0

@Sumon_Early_by_cycle_L2C         8         2        12        10         1        15         9         6         6        13        26       131
@Sumon_Late_by_cycle_L2C         0         2         0         0         0         0         0         0         0         0         0         0
@Sumon_Early_stream_L2C         0         0         0         0         0         5         5         2         1         4        12        59
@Sumon_Early_CS_L2C         0         0         0         0         0         0         1         0         0         1         6        27
@Sumon_Early_CPLX_L2C         0         0         0         0         1         2         2         0         2         3         7        31
@Sumon_Late_stream_L2C         0         0         0         0         0         0         0         0         0         0         0         0
@Sumon_Late_CS_L2C         0         0         0         0         0         0         0         0         0         0         0         0
@Sumon_Late_CPLX_L2C         0         0         0         0         0         0         0         0         0         0         0         0
DRAM PAGES: 1048576
Allocated PAGES: 672
