
*** ChampSim Multicore Out-of-Order Simulator ***

Warmup Instructions: 10000000
Simulation Instructions: 50000000
Number of CPUs: 1
LLC sets: 2048
LLC ways: 16
Off-chip DRAM Size: 4096 MB Channels: 1 Width: 64-bit Data Rate: 6400 MT/s
CPU 0 runs traces/SPEC2017/605.mcf_s-484B.champsimtrace.xz
.xz
CPU 0 Bimodal branch predictor
BTB has LRU replacement policy
ITLB has LRU replacement policy
DTLB has LRU replacement policy
STLB has LRU replacement policy
L1I has LRU replacement policy
IP Table Entries: 256
Initialize DRRIP state for L1D
IP_Table L2 entries: 256
Initialize DRRIP state for L2C
Initialize DRRIP state for LLC
Heartbeat CPU 0 instructions: 10000001 cycles: 3166473 heartbeat IPC: 3.15809 cumulative IPC: 3.15809 (Simulation time: 0 hr 13 min 17 sec) 

Warmup complete CPU 0 instructions: 10000001 cycles: 3166473 (Simulation time: 0 hr 13 min 17 sec) 

Heartbeat CPU 0 instructions: 20000000 cycles: 32092677 heartbeat IPC: 0.345707 cumulative IPC: 0.345707 (Simulation time: 0 hr 30 min 13 sec) 
Heartbeat CPU 0 instructions: 30000000 cycles: 57940777 heartbeat IPC: 0.386876 cumulative IPC: 0.365135 (Simulation time: 0 hr 46 min 59 sec) 
Heartbeat CPU 0 instructions: 40000000 cycles: 84253537 heartbeat IPC: 0.380044 cumulative IPC: 0.369973 (Simulation time: 1 hr 0 min 6 sec) 
Heartbeat CPU 0 instructions: 50000000 cycles: 111479158 heartbeat IPC: 0.367301 cumulative IPC: 0.369301 (Simulation time: 1 hr 7 min 26 sec) 
Heartbeat CPU 0 instructions: 60000003 cycles: 137704864 heartbeat IPC: 0.381305 cumulative IPC: 0.371641 (Simulation time: 1 hr 11 min 27 sec) 
Finished CPU 0 instructions: 50000002 cycles: 134538391 cumulative IPC: 0.371641 (Simulation time: 1 hr 11 min 27 sec) 

ChampSim completed all CPUs

Region of Interest Statistics

CPU 0 cumulative IPC: 0.371641 instructions: 50000002 cycles: 134538391
ITLB TOTAL     ACCESS:    8198520  HIT:    8198520  MISS:          0  HIT %:        100  MISS %:          0   MPKI: 0
ITLB LOAD TRANSLATION ACCESS:    8198520  HIT:    8198520  MISS:          0  HIT %:        100  MISS %:          0   MPKI: 0
ITLB PREFETCH  REQUESTED:          0  ISSUED:          0  USEFUL:          0  USELESS:          0
ITLB USEFUL LOAD PREFETCHES:          0 PREFETCH ISSUED TO LOWER LEVEL:          0  ACCURACY: -nan
ITLB TIMELY PREFETCHES:          0 LATE PREFETCHES: 0 DROPPED PREFETCHES: 0
ITLB PREFETCHES SAME FILL-ORIGIN LEVEL: 0 DIFFERENT FILL-ORIGIN LEVEL: 0
ITLB AVERAGE MISS LATENCY: -nan cycles
ITLB RQ	ACCESS:   10683220	FORWARD:          0	MERGED:    2484701	TO_CACHE:    8198519

DTLB TOTAL     ACCESS:   13230051  HIT:   13123088  MISS:     106963  HIT %:    99.1915  MISS %:   0.808485   MPKI: 2.13926
DTLB LOAD TRANSLATION ACCESS:   13230051  HIT:   13123088  MISS:     106963  HIT %:    99.1915  MISS %:   0.808485   MPKI: 2.13926
DTLB PREFETCH  REQUESTED:          0  ISSUED:          0  USEFUL:          0  USELESS:          0
DTLB USEFUL LOAD PREFETCHES:          0 PREFETCH ISSUED TO LOWER LEVEL:          0  ACCURACY: -nan
DTLB TIMELY PREFETCHES:          0 LATE PREFETCHES: 0 DROPPED PREFETCHES: 0
DTLB PREFETCHES SAME FILL-ORIGIN LEVEL: 0 DIFFERENT FILL-ORIGIN LEVEL: 0
DTLB AVERAGE MISS LATENCY: 37.0574 cycles
DTLB RQ	ACCESS:   23509228	FORWARD:          0	MERGED:   10266100	TO_CACHE:   13243128

STLB TOTAL     ACCESS:    3956574  HIT:    3922126  MISS:      34448  HIT %:    99.1293  MISS %:   0.870652   MPKI: 0.68896
STLB LOAD TRANSLATION ACCESS:     106963  HIT:      72523  MISS:      34440  HIT %:     67.802  MISS %:     32.198   MPKI: 0.6888
STLB TRANSLATION FROM L1D PREFETCHER ACCESS:    3849611  HIT:    3849603  MISS:          8  HIT %:    99.9998  MISS %: 0.000207813   MPKI: 0.00016
STLB PREFETCH  REQUESTED:          0  ISSUED:          0  USEFUL:          4  USELESS:          4
STLB USEFUL LOAD PREFETCHES:          4 PREFETCH ISSUED TO LOWER LEVEL:          0  ACCURACY: inf
STLB TIMELY PREFETCHES:          4 LATE PREFETCHES: 0 DROPPED PREFETCHES: 0
STLB PREFETCHES SAME FILL-ORIGIN LEVEL: 0 DIFFERENT FILL-ORIGIN LEVEL: 0
STLB AVERAGE MISS LATENCY: 87.1496 cycles
STLB RQ	ACCESS:    6340136	FORWARD:          0	MERGED:    2383562	TO_CACHE:    3956574

STLB Hit, L1D data hit: 0
STLB Hit, L2C data hit: 0
STLB Hit, LLC data hit: 0
STLB Hit, LLC data miss: 0
STLB STLB hints to L2: 0
L1D TOTAL     ACCESS:   29051570  HIT:   26984460  MISS:    2067110  HIT %:    92.8847  MISS %:    7.11531   MPKI: 41.3422
L1D LOAD      ACCESS:    8964681  HIT:    8146536  MISS:     818145  HIT %:    90.8737  MISS %:    9.12631   MPKI: 16.3629
L1D RFO       ACCESS:   14122039  HIT:   14012057  MISS:     109982  HIT %:    99.2212  MISS %:   0.778797   MPKI: 2.19964
L1D PREFETCH  ACCESS:    5964850  HIT:    4825867  MISS:    1138983  HIT %:    80.9051  MISS %:    19.0949   MPKI: 22.7797
L1D PREFETCH  REQUESTED:   12466444  ISSUED:   12466354  USEFUL:     308679  USELESS:     830455
L1D USEFUL LOAD PREFETCHES:     308679 PREFETCH ISSUED TO LOWER LEVEL:    1332678  ACCURACY: 23.1623
L1D TIMELY PREFETCHES:     308679 LATE PREFETCHES: 192029 DROPPED PREFETCHES: 0
L1D PREFETCHES SAME FILL-ORIGIN LEVEL: 1332678 DIFFERENT FILL-ORIGIN LEVEL: 0
L1D AVERAGE MISS LATENCY: 6.29915e+06 cycles
L1D RQ	ACCESS:   15557944	FORWARD:          0	MERGED:    6506450	TO_CACHE:    9047280
L1D WQ	ACCESS:   14570723	FORWARD:       4222	MERGED:     108775	TO_CACHE:   14461948
L1D PQ	ACCESS:    6233181	FORWARD:          0	MERGED:          0	TO_CACHE:    6233173

L1D UNIQUE REGIONS ACCESSED: 0
L1D REGIONS CONFLICTS: 0
L1D Cross Page Prefetch Requests: 0
L1D Same Page Prefetch Requests: 7426872
L1D ROI Sum of L1D PQ occupancy: 81562897
L1D PREFETCHES PUSHED FROM L2C: 0
L1I TOTAL     ACCESS:   10683219  HIT:   10683219  MISS:          0  HIT %:        100  MISS %:          0   MPKI: 0
L1I LOAD      ACCESS:   10683219  HIT:   10683219  MISS:          0  HIT %:        100  MISS %:          0   MPKI: 0
L1I PREFETCH  REQUESTED:          0  ISSUED:          0  USEFUL:          0  USELESS:          0
L1I USEFUL LOAD PREFETCHES:          0 PREFETCH ISSUED TO LOWER LEVEL:          0  ACCURACY: -nan
L1I TIMELY PREFETCHES:          0 LATE PREFETCHES: 0 DROPPED PREFETCHES: 0
L1I PREFETCHES SAME FILL-ORIGIN LEVEL: 0 DIFFERENT FILL-ORIGIN LEVEL: 0
L1I AVERAGE MISS LATENCY: -nan cycles
L1I RQ	ACCESS:   14473717	FORWARD:          0	MERGED:    3790497	TO_CACHE:   10683220

BTB TOTAL     ACCESS:    4772229  HIT:    4772195  MISS:         34  HIT %:    99.9993  MISS %: 0.000712455   MPKI: 0.00068
BTB BRANCH_DIRECT_JUMP	ACCESS:     215829  HIT:     215823  MISS:          6
BTB BRANCH_INDIRECT	ACCESS:          0  HIT:          0  MISS:          0
BTB BRANCH_CONDITIONAL	ACCESS:    4556360  HIT:    4556336  MISS:         24
BTB BRANCH_DIRECT_CALL	ACCESS:         20  HIT:         18  MISS:          2
BTB BRANCH_INDIRECT_CALL	ACCESS:          0  HIT:          0  MISS:          0
BTB BRANCH_RETURN	ACCESS:         20  HIT:         18  MISS:          2
BTB BRANCH_OTHER ACCESS:          0  HIT:          0  MISS:          0

L2C TOTAL     ACCESS:    2718510  HIT:    1030629  MISS:    1687881  HIT %:    37.9115  MISS %:    62.0885   MPKI: 33.7576
L2C LOAD      ACCESS:     626111  HIT:      78257  MISS:     547854  HIT %:    12.4989  MISS %:    87.5011   MPKI: 10.9571
L2C DATA LOAD MPKI: 10.9571
L2C INSTRUCTION LOAD MPKI: 0
L2C RFO       ACCESS:     108289  HIT:      10371  MISS:      97918  HIT %:    9.57715  MISS %:    90.4228   MPKI: 1.95836
L2C PREFETCH  ACCESS:    1630981  HIT:     598930  MISS:    1032051  HIT %:    36.7221  MISS %:    63.2779   MPKI: 20.641
L2C DATA PREFETCH MPKI: 20.641
L2C INSTRUCTION PREFETCH MPKI: 0
L2C WRITEBACK ACCESS:     318598  HIT:     313610  MISS:       4988  HIT %:    98.4344  MISS %:    1.56561   MPKI: 0.09976
L2C LOAD TRANSLATION ACCESS:      34523  HIT:      29460  MISS:       5063  HIT %:    85.3344  MISS %:    14.6656   MPKI: 0.10126
L2C TRANSLATION FROM L1D PREFETCHER ACCESS:          8  HIT:          1  MISS:          7  HIT %:       12.5  MISS %:       87.5   MPKI: 0.00014
L2C PREFETCH  REQUESTED:     389781  ISSUED:     389781  USEFUL:      56363  USELESS:     975148
L2C USEFUL LOAD PREFETCHES:      56363 PREFETCH ISSUED TO LOWER LEVEL:    1032126  ACCURACY: 5.46086
L2C TIMELY PREFETCHES:      56363 LATE PREFETCHES: 70 DROPPED PREFETCHES: 0
L2C PREFETCHES SAME FILL-ORIGIN LEVEL: 126997 DIFFERENT FILL-ORIGIN LEVEL: 0
L2C AVERAGE MISS LATENCY: 179.102 cycles
L2C RQ	ACCESS:     768970	FORWARD:          0	MERGED:          0	TO_CACHE:     768933
L2C WQ	ACCESS:     318598	FORWARD:         45	MERGED:          0	TO_CACHE:     318598
L2C PQ	ACCESS:    1722459	FORWARD:          0	MERGED:      39748	TO_CACHE:    1682703

L2C Instructions Evicting Data 0
L2C Translations Evicting Data 5065
L2C Data Evicting Data 1672783
L2C Instructions Evicting Instructions 0
L2C Translations Evicting Instructions 0
L2C Data Evicting Instructions 0
L2C Instructions Evicting Translations 0
L2C Translations Evicting Translations 5
L2C Data Evicting Translations 5040
L2C Dense regions hint from L2: 0
PSCL5 TOTAL     ACCESS:      34448  HIT:      34448  MISS:          0  HIT %:        100  MISS %:          0   MPKI: 0
PSCL5 LOAD TRANSLATION ACCESS:      34440  HIT:      34440  MISS:          0  HIT %:        100  MISS %:          0   MPKI: 0
PSCL5 TRANSLATION FROM L1D PREFETCHER ACCESS:          8  HIT:          8  MISS:          0  HIT %:        100  MISS %:          0   MPKI: 0
PSCL5 PREFETCH  REQUESTED:          0  ISSUED:          0  USEFUL:          0  USELESS:          0
PSCL5 USEFUL LOAD PREFETCHES:          0 PREFETCH ISSUED TO LOWER LEVEL:          0  ACCURACY: -nan
PSCL5 TIMELY PREFETCHES:          0 LATE PREFETCHES: 0 DROPPED PREFETCHES: 0
PSCL5 PREFETCHES SAME FILL-ORIGIN LEVEL: 0 DIFFERENT FILL-ORIGIN LEVEL: 0

PSCL4 TOTAL     ACCESS:      34448  HIT:      34448  MISS:          0  HIT %:        100  MISS %:          0   MPKI: 0
PSCL4 LOAD TRANSLATION ACCESS:      34440  HIT:      34440  MISS:          0  HIT %:        100  MISS %:          0   MPKI: 0
PSCL4 TRANSLATION FROM L1D PREFETCHER ACCESS:          8  HIT:          8  MISS:          0  HIT %:        100  MISS %:          0   MPKI: 0
PSCL4 PREFETCH  REQUESTED:          0  ISSUED:          0  USEFUL:          0  USELESS:          0
PSCL4 USEFUL LOAD PREFETCHES:          0 PREFETCH ISSUED TO LOWER LEVEL:          0  ACCURACY: -nan
PSCL4 TIMELY PREFETCHES:          0 LATE PREFETCHES: 0 DROPPED PREFETCHES: 0
PSCL4 PREFETCHES SAME FILL-ORIGIN LEVEL: 0 DIFFERENT FILL-ORIGIN LEVEL: 0

PSCL3 TOTAL     ACCESS:      34448  HIT:      34448  MISS:          0  HIT %:        100  MISS %:          0   MPKI: 0
PSCL3 LOAD TRANSLATION ACCESS:      34440  HIT:      34440  MISS:          0  HIT %:        100  MISS %:          0   MPKI: 0
PSCL3 TRANSLATION FROM L1D PREFETCHER ACCESS:          8  HIT:          8  MISS:          0  HIT %:        100  MISS %:          0   MPKI: 0
PSCL3 PREFETCH  REQUESTED:          0  ISSUED:          0  USEFUL:          0  USELESS:          0
PSCL3 USEFUL LOAD PREFETCHES:          0 PREFETCH ISSUED TO LOWER LEVEL:          0  ACCURACY: -nan
PSCL3 TIMELY PREFETCHES:          0 LATE PREFETCHES: 0 DROPPED PREFETCHES: 0
PSCL3 PREFETCHES SAME FILL-ORIGIN LEVEL: 0 DIFFERENT FILL-ORIGIN LEVEL: 0

PSCL2 TOTAL     ACCESS:      34448  HIT:      34334  MISS:        114  HIT %:    99.6691  MISS %:   0.330934   MPKI: 0.00228
PSCL2 LOAD TRANSLATION ACCESS:      34440  HIT:      34326  MISS:        114  HIT %:     99.669  MISS %:    0.33101   MPKI: 0.00228
PSCL2 TRANSLATION FROM L1D PREFETCHER ACCESS:          8  HIT:          8  MISS:          0  HIT %:        100  MISS %:          0   MPKI: 0
PSCL2 PREFETCH  REQUESTED:          0  ISSUED:          0  USEFUL:          0  USELESS:          0
PSCL2 USEFUL LOAD PREFETCHES:          0 PREFETCH ISSUED TO LOWER LEVEL:          0  ACCURACY: -nan
PSCL2 TIMELY PREFETCHES:          0 LATE PREFETCHES: 0 DROPPED PREFETCHES: 0
PSCL2 PREFETCHES SAME FILL-ORIGIN LEVEL: 0 DIFFERENT FILL-ORIGIN LEVEL: 0

LLC TOTAL     ACCESS:    1981167  HIT:     209003  MISS:    1772164  HIT %:    10.5495  MISS %:    89.4505   MPKI: 35.4433
LLC LOAD      ACCESS:     547785  HIT:       6702  MISS:     541083  HIT %:    1.22347  MISS %:    98.7765   MPKI: 10.8217
LLC RFO       ACCESS:      97917  HIT:         52  MISS:      97865  HIT %:  0.0531062  MISS %:    99.9469   MPKI: 1.9573
LLC PREFETCH  ACCESS:    1032121  HIT:      20618  MISS:    1011503  HIT %:    1.99763  MISS %:    98.0024   MPKI: 20.2301
LLC WRITEBACK ACCESS:     298274  HIT:     181393  MISS:     116881  HIT %:    60.8142  MISS %:    39.1858   MPKI: 2.33762
LLC LOAD TRANSLATION ACCESS:       5063  HIT:        238  MISS:       4825  HIT %:    4.70077  MISS %:    95.2992   MPKI: 0.0965
LLC TRANSLATION FROM L1D PREFETCHER ACCESS:          7  HIT:          0  MISS:          7  HIT %:          0  MISS %:        100   MPKI: 0.00014
LLC PREFETCH  REQUESTED:          0  ISSUED:          0  USEFUL:       1549  USELESS:    1021806
LLC USEFUL LOAD PREFETCHES:       1549 PREFETCH ISSUED TO LOWER LEVEL:    1011508  ACCURACY: 0.153138
LLC TIMELY PREFETCHES:       1549 LATE PREFETCHES: 0 DROPPED PREFETCHES: 0
LLC PREFETCHES SAME FILL-ORIGIN LEVEL: 0 DIFFERENT FILL-ORIGIN LEVEL: 0
LLC AVERAGE MISS LATENCY: 141.978 cycles
LLC RQ	ACCESS:     650774	FORWARD:          0	MERGED:          0	TO_CACHE:     650774
LLC WQ	ACCESS:     298274	FORWARD:          0	MERGED:          0	TO_CACHE:     298274
LLC PQ	ACCESS:    1032126	FORWARD:          0	MERGED:          0	TO_CACHE:    1032126

LLC Dense regions hint to LLC: 0

RAW hits: 263631
Loads Generated: 15821575
Loads sent to L1D: 15557944
Stores Generated: 14570745
Stores sent to L1D: 14570723
Major fault: 0 Minor fault: 18248
Allocated PAGES: 18248

stream: 
stream:times selected: 6986290
stream:pref_filled: 593274
stream:pref_useful: 120947
stream:pref_late: 74569
stream:misses: 117939
stream:misses_by_poll: 0

CS: 
CS:times selected: 206045
CS:pref_filled: 144532
CS:pref_useful: 116182
CS:pref_late: 714
CS:misses: 18606
CS:misses_by_poll: 169

CPLX: 
CPLX:times selected: 6721107
CPLX:pref_filled: 594668
CPLX:pref_useful: 126034
CPLX:pref_late: 131882
CPLX:misses: 788869
CPLX:misses_by_poll: 3697

NL_L1: 
NL:times selected: 75710
NL:pref_filled: 8701
NL:pref_useful: 3852
NL:pref_late: 862
NL:misses: 17285
NL:misses_by_poll: 1

total selections: 13989152
total_filled: 1138983
total_useful: 308679
total_late: 210261
total_polluted: 3867
total_misses_after_warmup: 900745
conflicts: 19260
Degree Incremented Times: 41547
Degree Decremented Times: 131620

L1 IP Table Write Accesses: 8966415
L1 IP Table Read Accesses: 8947155
L1 RST Write Accesses: 5798280
L1 RST Read Accesses: 11596560
L1 CSPT Write Accesses: 5798280
L1 CSPT Read Accesses: 11372564
L1 RR Filter Tag Write Accesses: 6233271
L1 RR Filter Tag Read Accesses: 280030205
L1 IP Table Tag Write Accesses: 9047281
L1 IP Table Tag Read Accesses: 9047281
L1 RST Tag Write Accesses: 0
L1 RST Tag Read Accesses: 57276283
L1 RR Filter Write Accesses: 0
L1 RR Filter Read Accesses: 9175436
test: 3966588
L2 IP Table Read Accesses: 3770180
L2 IP Table Write Accesses: 3206311
L2 IP Table Tag Read Accesses: 1915461
L2 IP Table Tag Write Accesses: 1915461

DRAM Statistics
 CHANNEL 0
 RQ ROW_BUFFER_HIT:     804885  ROW_BUFFER_MISS:     850400
 DBUS_CONGESTED:       1398
 WQ ROW_BUFFER_HIT:      64091  ROW_BUFFER_MISS:     219703  FULL:          0

 AVG_CONGESTED_CYCLE: 5
 All warmup complete: 2
Channel 0 Bank busy for read cycles: 0
Channel 0 Bank busy for write cycles: 0
Channel 0
Rank 0
0banks busy for read cycles: 40072332
0banks busy for write cycles: 56295
1banks busy for read cycles: 29221929
1banks busy for write cycles: 8481489
2banks busy for read cycles: 17387918
2banks busy for write cycles: 5135056
3banks busy for read cycles: 9719835
3banks busy for write cycles: 3420384
4banks busy for read cycles: 4733178
4banks busy for write cycles: 2114620
5banks busy for read cycles: 3018345
5banks busy for write cycles: 1313941
6banks busy for read cycles: 2409039
6banks busy for write cycles: 794754
7banks busy for read cycles: 1914894
7banks busy for write cycles: 681678
8banks busy for read cycles: 1639778
8banks busy for write cycles: 2422927

CPU 0 Branch Prediction Accuracy: 98.133% MPKI: 1.81274 Average ROB Occupancy at Mispredict: 211.292
Branch types
NOT_BRANCH: 45145344 90.2907%
BRANCH_DIRECT_JUMP: 215829 0.431658%
BRANCH_INDIRECT: 0 0%
BRANCH_CONDITIONAL: 4638791 9.27758%
BRANCH_DIRECT_CALL: 20 4e-05%
BRANCH_INDIRECT_CALL: 0 0%
BRANCH_RETURN: 20 4e-05%
BRANCH_OTHER: 0 0%

@sumon_overall_L1D    308679    192029    830455   1138983  12466354  12466444
@Sumon_Early_by_class_L1D     96016    103909    105500       827
@Sumon_Late_by_class_L1D     69878       693    118731       827

@Sumon_Early_by_cycle_L1D     77778     44522     40349     20225      9630     29463     12762     19516     27890     14221      7652      4671
@Sumon_Late_by_cycle_L1D     75980     98293     17094       619        40         2         0         0         0         0         0         0
@Sumon_Early_stream_L1D     46408     21176      5907       468        42      6120      4305      3990      3310      2645       883       762
@Sumon_Early_CS_L1D      6300      6643     23265     17336      8910     11976      3472      9654     16083       269         1         0
@Sumon_Early_CPLX_L1D     23257     15876     11035      2402       678     11307      4941      5770      8381     11229      6740      3884
@Sumon_Late_stream_L1D     37721     28900      3054       194         9         0         0         0         0         0         0         0
@Sumon_Late_CS_L1D       389       290        12         0         2         0         0         0         0         0         0         0
@Sumon_Late_CPLX_L1D     35427     68858     13992       423        29         2         0         0         0         0         0         0
@sumon_overall_L2C     56363        70    975148   1032058    389781    389781
@Sumon_Early_by_class_L2C      6117     15723     31823         0
@Sumon_Late_by_class_L2C         0        58         0         0

@Sumon_Early_by_cycle_L2C       610      1567      2760      3011      3375      7950      3045      2883      5753      9119      4957     11333
@Sumon_Late_by_cycle_L2C        38        26         6         0         0         0         0         0         0         0         0         0
@Sumon_Early_stream_L2C       320       294       182        33         1       812       667       718       746       758       462      1124
@Sumon_Early_CS_L2C        57       284      1870      2795      3282      5541      1249       222       169       251         2         1
@Sumon_Early_CPLX_L2C       224       887       672       177        92      1514      1032      1723      4494      7438      4092      9478
@Sumon_Late_stream_L2C         0         0         0         0         0         0         0         0         0         0         0         0
@Sumon_Late_CS_L2C        34        19         5         0         0         0         0         0         0         0         0         0
@Sumon_Late_CPLX_L2C         0         0         0         0         0         0         0         0         0         0         0         0
DRAM PAGES: 1048576
Allocated PAGES: 18248
