
*** ChampSim Multicore Out-of-Order Simulator ***

Warmup Instructions: 10000000
Simulation Instructions: 50000000
Number of CPUs: 1
LLC sets: 2048
LLC ways: 16
Off-chip DRAM Size: 4096 MB Channels: 1 Width: 64-bit Data Rate: 6400 MT/s
CPU 0 runs traces/SPEC2017/605.mcf_s-782B.champsimtrace.xz
.xz
CPU 0 Bimodal branch predictor
BTB has LRU replacement policy
ITLB has LRU replacement policy
DTLB has LRU replacement policy
STLB has LRU replacement policy
L1I has LRU replacement policy
IP Table Entries: 256
Initialize DRRIP state for L1D
IP_Table L2 entries: 256
Initialize DRRIP state for L2C
Initialize DRRIP state for LLC
Heartbeat CPU 0 instructions: 10000001 cycles: 3785295 heartbeat IPC: 2.6418 cumulative IPC: 2.6418 (Simulation time: 0 hr 15 min 56 sec) 

Warmup complete CPU 0 instructions: 10000001 cycles: 3785295 (Simulation time: 0 hr 15 min 56 sec) 

Heartbeat CPU 0 instructions: 20000000 cycles: 54996017 heartbeat IPC: 0.195272 cumulative IPC: 0.195272 (Simulation time: 0 hr 33 min 33 sec) 
Heartbeat CPU 0 instructions: 30000001 cycles: 112708699 heartbeat IPC: 0.173272 cumulative IPC: 0.183615 (Simulation time: 0 hr 51 min 51 sec) 
Heartbeat CPU 0 instructions: 40000001 cycles: 168145300 heartbeat IPC: 0.180386 cumulative IPC: 0.182526 (Simulation time: 1 hr 3 min 48 sec) 
Heartbeat CPU 0 instructions: 50000000 cycles: 226675727 heartbeat IPC: 0.170851 cumulative IPC: 0.17946 (Simulation time: 1 hr 9 min 49 sec) 
Heartbeat CPU 0 instructions: 60000003 cycles: 279519462 heartbeat IPC: 0.189237 cumulative IPC: 0.181334 (Simulation time: 1 hr 13 min 30 sec) 
Finished CPU 0 instructions: 50000002 cycles: 275734167 cumulative IPC: 0.181334 (Simulation time: 1 hr 13 min 30 sec) 

ChampSim completed all CPUs

Region of Interest Statistics

CPU 0 cumulative IPC: 0.181334 instructions: 50000002 cycles: 275734167
ITLB TOTAL     ACCESS:    8096878  HIT:    8096878  MISS:          0  HIT %:        100  MISS %:          0   MPKI: 0
ITLB LOAD TRANSLATION ACCESS:    8096878  HIT:    8096878  MISS:          0  HIT %:        100  MISS %:          0   MPKI: 0
ITLB PREFETCH  REQUESTED:          0  ISSUED:          0  USEFUL:          0  USELESS:          0
ITLB USEFUL LOAD PREFETCHES:          0 PREFETCH ISSUED TO LOWER LEVEL:          0  ACCURACY: -nan
ITLB TIMELY PREFETCHES:          0 LATE PREFETCHES: 0 DROPPED PREFETCHES: 0
ITLB PREFETCHES SAME FILL-ORIGIN LEVEL: 0 DIFFERENT FILL-ORIGIN LEVEL: 0
ITLB AVERAGE MISS LATENCY: -nan cycles
ITLB RQ	ACCESS:    8211387	FORWARD:          0	MERGED:     114509	TO_CACHE:    8096878

DTLB TOTAL     ACCESS:   10577263  HIT:    6249595  MISS:    4327668  HIT %:    59.0852  MISS %:    40.9148   MPKI: 86.5534
DTLB LOAD TRANSLATION ACCESS:   10577263  HIT:    6249595  MISS:    4327668  HIT %:    59.0852  MISS %:    40.9148   MPKI: 86.5534
DTLB PREFETCH  REQUESTED:          0  ISSUED:          0  USEFUL:          0  USELESS:          0
DTLB USEFUL LOAD PREFETCHES:          0 PREFETCH ISSUED TO LOWER LEVEL:          0  ACCURACY: -nan
DTLB TIMELY PREFETCHES:          0 LATE PREFETCHES: 0 DROPPED PREFETCHES: 0
DTLB PREFETCHES SAME FILL-ORIGIN LEVEL: 0 DIFFERENT FILL-ORIGIN LEVEL: 0
DTLB AVERAGE MISS LATENCY: 11.2204 cycles
DTLB RQ	ACCESS:   11703690	FORWARD:          0	MERGED:    1056177	TO_CACHE:   10647513

STLB TOTAL     ACCESS:   11287893  HIT:   11231319  MISS:      56574  HIT %:    99.4988  MISS %:   0.501192   MPKI: 1.13148
STLB LOAD TRANSLATION ACCESS:    4327668  HIT:    4271094  MISS:      56574  HIT %:    98.6927  MISS %:    1.30726   MPKI: 1.13148
STLB TRANSLATION FROM L1D PREFETCHER ACCESS:    6960225  HIT:    6960225  MISS:          0  HIT %:        100  MISS %:          0   MPKI: 0
STLB PREFETCH  REQUESTED:          0  ISSUED:          0  USEFUL:          0  USELESS:          0
STLB USEFUL LOAD PREFETCHES:          0 PREFETCH ISSUED TO LOWER LEVEL:          0  ACCURACY: -nan
STLB TIMELY PREFETCHES:          0 LATE PREFETCHES: 0 DROPPED PREFETCHES: 0
STLB PREFETCHES SAME FILL-ORIGIN LEVEL: 0 DIFFERENT FILL-ORIGIN LEVEL: 0
STLB AVERAGE MISS LATENCY: 145.225 cycles
STLB RQ	ACCESS:   12668131	FORWARD:          0	MERGED:    1380244	TO_CACHE:   11287887

STLB Hit, L1D data hit: 0
STLB Hit, L2C data hit: 0
STLB Hit, LLC data hit: 0
STLB Hit, LLC data miss: 0
STLB STLB hints to L2: 0
L1D TOTAL     ACCESS:   18682562  HIT:    5775179  MISS:   12907383  HIT %:    30.9121  MISS %:    69.0879   MPKI: 258.148
L1D LOAD      ACCESS:   10569281  HIT:    4306694  MISS:    6262587  HIT %:    40.7473  MISS %:    59.2527   MPKI: 125.252
L1D RFO       ACCESS:     954964  HIT:     937486  MISS:      17478  HIT %:    98.1698  MISS %:    1.83023   MPKI: 0.34956
L1D PREFETCH  ACCESS:    7158317  HIT:     530999  MISS:    6627318  HIT %:    7.41793  MISS %:    92.5821   MPKI: 132.546
L1D PREFETCH  REQUESTED:   16681484  ISSUED:   16681405  USEFUL:    1503482  USELESS:    5123814
L1D USEFUL LOAD PREFETCHES:    1503482 PREFETCH ISSUED TO LOWER LEVEL:    7353385  ACCURACY: 20.4461
L1D TIMELY PREFETCHES:    1503482 LATE PREFETCHES: 726061 DROPPED PREFETCHES: 0
L1D PREFETCHES SAME FILL-ORIGIN LEVEL: 7353385 DIFFERENT FILL-ORIGIN LEVEL: 0
L1D AVERAGE MISS LATENCY: 8e+06 cycles
L1D RQ	ACCESS:   17872424	FORWARD:          0	MERGED:    7008703	TO_CACHE:   10713422
L1D WQ	ACCESS:    1026019	FORWARD:     150776	MERGED:      35751	TO_CACHE:     990268
L1D PQ	ACCESS:    8340941	FORWARD:          0	MERGED:          0	TO_CACHE:    8340464

L1D UNIQUE REGIONS ACCESSED: 0
L1D REGIONS CONFLICTS: 0
L1D Cross Page Prefetch Requests: 0
L1D Same Page Prefetch Requests: 9966398
L1D ROI Sum of L1D PQ occupancy: 109867647
L1D PREFETCHES PUSHED FROM L2C: 0
L1I TOTAL     ACCESS:    8211387  HIT:    8211387  MISS:          0  HIT %:        100  MISS %:          0   MPKI: 0
L1I LOAD      ACCESS:    8211387  HIT:    8211387  MISS:          0  HIT %:        100  MISS %:          0   MPKI: 0
L1I PREFETCH  REQUESTED:          0  ISSUED:          0  USEFUL:          0  USELESS:          0
L1I USEFUL LOAD PREFETCHES:          0 PREFETCH ISSUED TO LOWER LEVEL:          0  ACCURACY: -nan
L1I TIMELY PREFETCHES:          0 LATE PREFETCHES: 0 DROPPED PREFETCHES: 0
L1I PREFETCHES SAME FILL-ORIGIN LEVEL: 0 DIFFERENT FILL-ORIGIN LEVEL: 0
L1I AVERAGE MISS LATENCY: -nan cycles
L1I RQ	ACCESS:   11106448	FORWARD:          0	MERGED:    2895061	TO_CACHE:    8211387

BTB TOTAL     ACCESS:   14274117  HIT:   14220061  MISS:      54056  HIT %:    99.6213  MISS %:   0.378699   MPKI: 1.08112
BTB BRANCH_DIRECT_JUMP	ACCESS:    1888246  HIT:    1888209  MISS:         37
BTB BRANCH_INDIRECT	ACCESS:          0  HIT:          0  MISS:          0
BTB BRANCH_CONDITIONAL	ACCESS:   11987047  HIT:   11986967  MISS:         80
BTB BRANCH_DIRECT_CALL	ACCESS:     184334  HIT:     184317  MISS:         17
BTB BRANCH_INDIRECT_CALL	ACCESS:      15078  HIT:      15070  MISS:          8
BTB BRANCH_RETURN	ACCESS:     199412  HIT:     145498  MISS:      53914
BTB BRANCH_OTHER ACCESS:          0  HIT:          0  MISS:          0

L2C TOTAL     ACCESS:   14489988  HIT:    4107093  MISS:   10382895  HIT %:    28.3444  MISS %:    71.6556   MPKI: 207.658
L2C LOAD      ACCESS:    5536521  HIT:    1663852  MISS:    3872669  HIT %:    30.0523  MISS %:    69.9477   MPKI: 77.4534
L2C DATA LOAD MPKI: 77.4534
L2C INSTRUCTION LOAD MPKI: 0
L2C RFO       ACCESS:      17466  HIT:       7954  MISS:       9512  HIT %:    45.5399  MISS %:    54.4601   MPKI: 0.19024
L2C PREFETCH  ACCESS:    8730186  HIT:    2308884  MISS:    6421302  HIT %:    26.4471  MISS %:    73.5529   MPKI: 128.426
L2C DATA PREFETCH MPKI: 128.426
L2C INSTRUCTION PREFETCH MPKI: 0
L2C WRITEBACK ACCESS:     148861  HIT:      88382  MISS:      60479  HIT %:    59.3722  MISS %:    40.6278   MPKI: 1.20958
L2C LOAD TRANSLATION ACCESS:      56954  HIT:      38021  MISS:      18933  HIT %:    66.7574  MISS %:    33.2426   MPKI: 0.37866
L2C PREFETCH  REQUESTED:    4475336  ISSUED:    4475315  USEFUL:     238079  USELESS:    6183210
L2C USEFUL LOAD PREFETCHES:     238079 PREFETCH ISSUED TO LOWER LEVEL:    6453400  ACCURACY: 3.6892
L2C TIMELY PREFETCHES:     238079 LATE PREFETCHES: 32093 DROPPED PREFETCHES: 0
L2C PREFETCHES SAME FILL-ORIGIN LEVEL: 1608918 DIFFERENT FILL-ORIGIN LEVEL: 0
L2C AVERAGE MISS LATENCY: 113.934 cycles
L2C RQ	ACCESS:    5610947	FORWARD:          0	MERGED:          0	TO_CACHE:    5610939
L2C WQ	ACCESS:     148861	FORWARD:         10	MERGED:          0	TO_CACHE:     148861
L2C PQ	ACCESS:   11828700	FORWARD:          0	MERGED:    1760151	TO_CACHE:   10068547

L2C Instructions Evicting Data 0
L2C Translations Evicting Data 18880
L2C Data Evicting Data 10284732
L2C Instructions Evicting Instructions 0
L2C Translations Evicting Instructions 0
L2C Data Evicting Instructions 0
L2C Instructions Evicting Translations 0
L2C Translations Evicting Translations 53
L2C Data Evicting Translations 18751
L2C Dense regions hint from L2: 0
PSCL5 TOTAL     ACCESS:      56574  HIT:      56574  MISS:          0  HIT %:        100  MISS %:          0   MPKI: 0
PSCL5 LOAD TRANSLATION ACCESS:      56574  HIT:      56574  MISS:          0  HIT %:        100  MISS %:          0   MPKI: 0
PSCL5 PREFETCH  REQUESTED:          0  ISSUED:          0  USEFUL:          0  USELESS:          0
PSCL5 USEFUL LOAD PREFETCHES:          0 PREFETCH ISSUED TO LOWER LEVEL:          0  ACCURACY: -nan
PSCL5 TIMELY PREFETCHES:          0 LATE PREFETCHES: 0 DROPPED PREFETCHES: 0
PSCL5 PREFETCHES SAME FILL-ORIGIN LEVEL: 0 DIFFERENT FILL-ORIGIN LEVEL: 0

PSCL4 TOTAL     ACCESS:      56574  HIT:      56574  MISS:          0  HIT %:        100  MISS %:          0   MPKI: 0
PSCL4 LOAD TRANSLATION ACCESS:      56574  HIT:      56574  MISS:          0  HIT %:        100  MISS %:          0   MPKI: 0
PSCL4 PREFETCH  REQUESTED:          0  ISSUED:          0  USEFUL:          0  USELESS:          0
PSCL4 USEFUL LOAD PREFETCHES:          0 PREFETCH ISSUED TO LOWER LEVEL:          0  ACCURACY: -nan
PSCL4 TIMELY PREFETCHES:          0 LATE PREFETCHES: 0 DROPPED PREFETCHES: 0
PSCL4 PREFETCHES SAME FILL-ORIGIN LEVEL: 0 DIFFERENT FILL-ORIGIN LEVEL: 0

PSCL3 TOTAL     ACCESS:      56574  HIT:      56574  MISS:          0  HIT %:        100  MISS %:          0   MPKI: 0
PSCL3 LOAD TRANSLATION ACCESS:      56574  HIT:      56574  MISS:          0  HIT %:        100  MISS %:          0   MPKI: 0
PSCL3 PREFETCH  REQUESTED:          0  ISSUED:          0  USEFUL:          0  USELESS:          0
PSCL3 USEFUL LOAD PREFETCHES:          0 PREFETCH ISSUED TO LOWER LEVEL:          0  ACCURACY: -nan
PSCL3 TIMELY PREFETCHES:          0 LATE PREFETCHES: 0 DROPPED PREFETCHES: 0
PSCL3 PREFETCHES SAME FILL-ORIGIN LEVEL: 0 DIFFERENT FILL-ORIGIN LEVEL: 0

PSCL2 TOTAL     ACCESS:      56574  HIT:      55908  MISS:        666  HIT %:    98.8228  MISS %:    1.17722   MPKI: 0.01332
PSCL2 LOAD TRANSLATION ACCESS:      56574  HIT:      55908  MISS:        666  HIT %:    98.8228  MISS %:    1.17722   MPKI: 0.01332
PSCL2 PREFETCH  REQUESTED:          0  ISSUED:          0  USEFUL:          0  USELESS:          0
PSCL2 USEFUL LOAD PREFETCHES:          0 PREFETCH ISSUED TO LOWER LEVEL:          0  ACCURACY: -nan
PSCL2 TIMELY PREFETCHES:          0 LATE PREFETCHES: 0 DROPPED PREFETCHES: 0
PSCL2 PREFETCHES SAME FILL-ORIGIN LEVEL: 0 DIFFERENT FILL-ORIGIN LEVEL: 0

LLC TOTAL     ACCESS:   10425656  HIT:    5414282  MISS:    5011374  HIT %:    51.9323  MISS %:    48.0677   MPKI: 100.227
LLC LOAD      ACCESS:    3840576  HIT:    2534707  MISS:    1305869  HIT %:    65.9981  MISS %:    34.0019   MPKI: 26.1174
LLC RFO       ACCESS:       9511  HIT:       8350  MISS:       1161  HIT %:    87.7931  MISS %:    12.2069   MPKI: 0.02322
LLC PREFETCH  ACCESS:    6453395  HIT:    2789479  MISS:    3663916  HIT %:     43.225  MISS %:     56.775   MPKI: 73.2783
LLC WRITEBACK ACCESS:     103241  HIT:      74976  MISS:      28265  HIT %:    72.6223  MISS %:    27.3777   MPKI: 0.5653
LLC LOAD TRANSLATION ACCESS:      18933  HIT:       6770  MISS:      12163  HIT %:    35.7577  MISS %:    64.2423   MPKI: 0.24326
LLC PREFETCH  REQUESTED:          0  ISSUED:          0  USEFUL:      35653  USELESS:    3635015
LLC USEFUL LOAD PREFETCHES:      35653 PREFETCH ISSUED TO LOWER LEVEL:    3663921  ACCURACY: 0.973083
LLC TIMELY PREFETCHES:      35653 LATE PREFETCHES: 0 DROPPED PREFETCHES: 0
LLC PREFETCHES SAME FILL-ORIGIN LEVEL: 0 DIFFERENT FILL-ORIGIN LEVEL: 0
LLC AVERAGE MISS LATENCY: 174.063 cycles
LLC RQ	ACCESS:    3869020	FORWARD:          0	MERGED:          0	TO_CACHE:    3869019
LLC WQ	ACCESS:     103241	FORWARD:          1	MERGED:          0	TO_CACHE:     103241
LLC PQ	ACCESS:    6453400	FORWARD:          0	MERGED:          0	TO_CACHE:    6453400

LLC Dense regions hint to LLC: 0

RAW hits: 131568
Loads Generated: 18003996
Loads sent to L1D: 17872424
Stores Generated: 1026019
Stores sent to L1D: 1026019
Major fault: 0 Minor fault: 52663
Allocated PAGES: 52663

stream: 
stream:times selected: 11456056
stream:pref_filled: 5674126
stream:pref_useful: 53767
stream:pref_late: 11007
stream:misses: 1354102
stream:misses_by_poll: 0

CS: 
CS:times selected: 3112743
CS:pref_filled: 1822739
CS:pref_useful: 1666180
CS:pref_late: 869195
CS:misses: 1425036
CS:misses_by_poll: 5037

CPLX: 
CPLX:times selected: 8271125
CPLX:pref_filled: 352724
CPLX:pref_useful: 30395
CPLX:pref_late: 4601
CPLX:misses: 5042319
CPLX:misses_by_poll: 403

NL_L1: 
NL:times selected: 10618
NL:pref_filled: 5171
NL:pref_useful: 164
NL:pref_late: 14
NL:misses: 6566
NL:misses_by_poll: 0

total selections: 22850542
total_filled: 6627318
total_useful: 1503482
total_late: 925852
total_polluted: 5440
total_misses_after_warmup: 6406730
conflicts: 23268
Degree Incremented Times: 52555
Degree Decremented Times: 111252

L1 IP Table Write Accesses: 10649588
L1 IP Table Read Accesses: 10626320
L1 RST Write Accesses: 9203736
L1 RST Read Accesses: 18407472
L1 CSPT Write Accesses: 9203736
L1 CSPT Read Accesses: 15914278
L1 RR Filter Tag Write Accesses: 8341020
L1 RR Filter Tag Read Accesses: 497479242
L1 IP Table Tag Write Accesses: 10713424
L1 IP Table Tag Read Accesses: 10713424
L1 RST Tag Write Accesses: 0
L1 RST Tag Read Accesses: 82973776
L1 RR Filter Write Accesses: 0
L1 RR Filter Read Accesses: 16825031
test: 5232276
L2 IP Table Read Accesses: 23348983
L2 IP Table Write Accesses: 17816734
L2 IP Table Tag Read Accesses: 11676702
L2 IP Table Tag Write Accesses: 11676702

DRAM Statistics
 CHANNEL 0
 RQ ROW_BUFFER_HIT:    1347608  ROW_BUFFER_MISS:    3635476
 DBUS_CONGESTED:        786
 WQ ROW_BUFFER_HIT:      15296  ROW_BUFFER_MISS:      25626  FULL:          0

 AVG_CONGESTED_CYCLE: 4
 All warmup complete: 2
Channel 0 Bank busy for read cycles: 0
Channel 0 Bank busy for write cycles: 0
Channel 0
Rank 0
0banks busy for read cycles: 61252856
0banks busy for write cycles: 24426
1banks busy for read cycles: 53457932
1banks busy for write cycles: 6594068
2banks busy for read cycles: 47151267
2banks busy for write cycles: 1423935
3banks busy for read cycles: 34953137
3banks busy for write cycles: 461399
4banks busy for read cycles: 27417902
4banks busy for write cycles: 203531
5banks busy for read cycles: 19208560
5banks busy for write cycles: 105173
6banks busy for read cycles: 12392576
6banks busy for write cycles: 70122
7banks busy for read cycles: 7045006
7banks busy for write cycles: 65196
8banks busy for read cycles: 3839918
8banks busy for write cycles: 67164

CPU 0 Branch Prediction Accuracy: 96.3481% MPKI: 11.0798 Average ROB Occupancy at Mispredict: 44.9819
Branch types
NOT_BRANCH: 34829913 69.6598%
BRANCH_DIRECT_JUMP: 1888246 3.77649%
BRANCH_INDIRECT: 0 0%
BRANCH_CONDITIONAL: 12882825 25.7656%
BRANCH_DIRECT_CALL: 184334 0.368668%
BRANCH_INDIRECT_CALL: 15078 0.030156%
BRANCH_RETURN: 199412 0.398824%
BRANCH_OTHER: 0 0%

@sumon_overall_L1D   1503482    726061   5123814   6627318  16681405  16681484
@Sumon_Early_by_class_L1D     46089   1428413     28977         0
@Sumon_Late_by_class_L1D      8907    681243      4210         0

@Sumon_Early_by_cycle_L1D    400504    325447    509972    186447     52363     14875      2585      2408      2208      5102      1544        27
@Sumon_Late_by_cycle_L1D    359312    320266     45940       538         4         0         0         0         0         0         0         0
@Sumon_Early_stream_L1D     11146     11388      6992      1445       492      1703      2234      2241      2029      4894      1498        27
@Sumon_Early_CS_L1D    385794    309505    494679    179089     48631     10560        50         5        14        67        19         0
@Sumon_Early_CPLX_L1D      3563      4554      8301      5913      3240      2610       301       162       165       141        27         0
@Sumon_Late_stream_L1D      5346      3117       427        15         2         0         0         0         0         0         0         0
@Sumon_Late_CS_L1D    320001    315317     45403       520         2         0         0         0         0         0         0         0
@Sumon_Late_CPLX_L1D      2267      1830       110         3         0         0         0         0         0         0         0         0
@sumon_overall_L2C    238079     32093   6183210   6421302   4475315   4475336
@Sumon_Early_by_class_L2C     25265    207880      4657         0
@Sumon_Late_by_class_L2C         0     30845         0         0

@Sumon_Early_by_cycle_L2C     24178     54128     77954     33530     13686      7381       892      1645      2793      5583      3391     12918
@Sumon_Late_by_cycle_L2C     20658     10165      1251        19         0         0         0         0         0         0         0         0
@Sumon_Early_stream_L2C        40       263       235        93        74       448       781      1489      2423      4803      2725     11891
@Sumon_Early_CS_L2C     23969     53579     76898     32585     13002      6332        30        18       129       382       475       481
@Sumon_Early_CPLX_L2C        53       276       820       852       608       494        79       131       223       391       190       540
@Sumon_Late_stream_L2C         0         0         0         0         0         0         0         0         0         0         0         0
@Sumon_Late_CS_L2C     19434     10141      1251        19         0         0         0         0         0         0         0         0
@Sumon_Late_CPLX_L2C         0         0         0         0         0         0         0         0         0         0         0         0
DRAM PAGES: 1048576
Allocated PAGES: 52663
