
*** ChampSim Multicore Out-of-Order Simulator ***

Warmup Instructions: 10000000
Simulation Instructions: 50000000
Number of CPUs: 1
LLC sets: 2048
LLC ways: 16
Off-chip DRAM Size: 4096 MB Channels: 1 Width: 64-bit Data Rate: 6400 MT/s
CPU 0 runs traces/SPEC2017/619.lbm_s-2676B.champsimtrace.xz
.xz
CPU 0 Bimodal branch predictor
BTB has LRU replacement policy
ITLB has LRU replacement policy
DTLB has LRU replacement policy
STLB has LRU replacement policy
L1I has LRU replacement policy
IP Table Entries: 256
Initialize DRRIP state for L1D
IP_Table L2 entries: 256
Initialize DRRIP state for L2C
Initialize DRRIP state for LLC
Heartbeat CPU 0 instructions: 10000003 cycles: 2896827 heartbeat IPC: 3.45205 cumulative IPC: 3.45205 (Simulation time: 0 hr 10 min 3 sec) 

Warmup complete CPU 0 instructions: 10000003 cycles: 2896827 (Simulation time: 0 hr 10 min 3 sec) 

Heartbeat CPU 0 instructions: 20000001 cycles: 22281078 heartbeat IPC: 0.515883 cumulative IPC: 0.515883 (Simulation time: 0 hr 32 min 34 sec) 
Heartbeat CPU 0 instructions: 30000002 cycles: 41398081 heartbeat IPC: 0.523095 cumulative IPC: 0.519464 (Simulation time: 0 hr 54 min 12 sec) 
Heartbeat CPU 0 instructions: 40000002 cycles: 59414115 heartbeat IPC: 0.555061 cumulative IPC: 0.530811 (Simulation time: 1 hr 5 min 51 sec) 
Heartbeat CPU 0 instructions: 50000001 cycles: 76691992 heartbeat IPC: 0.578775 cumulative IPC: 0.542041 (Simulation time: 1 hr 11 min 10 sec) 
Heartbeat CPU 0 instructions: 60000001 cycles: 93177270 heartbeat IPC: 0.606602 cumulative IPC: 0.55383 (Simulation time: 1 hr 14 min 17 sec) 
Finished CPU 0 instructions: 50000002 cycles: 90280444 cumulative IPC: 0.55383 (Simulation time: 1 hr 14 min 17 sec) 

ChampSim completed all CPUs

Region of Interest Statistics

CPU 0 cumulative IPC: 0.55383 instructions: 50000002 cycles: 90280444
ITLB TOTAL     ACCESS:    6663604  HIT:    6663604  MISS:          0  HIT %:        100  MISS %:          0   MPKI: 0
ITLB LOAD TRANSLATION ACCESS:    6663604  HIT:    6663604  MISS:          0  HIT %:        100  MISS %:          0   MPKI: 0
ITLB PREFETCH  REQUESTED:          0  ISSUED:          0  USEFUL:          0  USELESS:          0
ITLB USEFUL LOAD PREFETCHES:          0 PREFETCH ISSUED TO LOWER LEVEL:          0  ACCURACY: -nan
ITLB TIMELY PREFETCHES:          0 LATE PREFETCHES: 0 DROPPED PREFETCHES: 0
ITLB PREFETCHES SAME FILL-ORIGIN LEVEL: 0 DIFFERENT FILL-ORIGIN LEVEL: 0
ITLB AVERAGE MISS LATENCY: -nan cycles
ITLB RQ	ACCESS:    8638234	FORWARD:          0	MERGED:    1974629	TO_CACHE:    6663605

DTLB TOTAL     ACCESS:    8745029  HIT:    8686511  MISS:      58518  HIT %:    99.3308  MISS %:   0.669157   MPKI: 1.17036
DTLB LOAD TRANSLATION ACCESS:    8745029  HIT:    8686511  MISS:      58518  HIT %:    99.3308  MISS %:   0.669157   MPKI: 1.17036
DTLB PREFETCH  REQUESTED:          0  ISSUED:          0  USEFUL:          0  USELESS:          0
DTLB USEFUL LOAD PREFETCHES:          0 PREFETCH ISSUED TO LOWER LEVEL:          0  ACCURACY: -nan
DTLB TIMELY PREFETCHES:          0 LATE PREFETCHES: 0 DROPPED PREFETCHES: 0
DTLB PREFETCHES SAME FILL-ORIGIN LEVEL: 0 DIFFERENT FILL-ORIGIN LEVEL: 0
DTLB AVERAGE MISS LATENCY: 113.277 cycles
DTLB RQ	ACCESS:   12629439	FORWARD:          0	MERGED:    3864921	TO_CACHE:    8764518

STLB TOTAL     ACCESS:     367185  HIT:     335432  MISS:      31753  HIT %:    91.3523  MISS %:    8.64768   MPKI: 0.63506
STLB LOAD TRANSLATION ACCESS:      58518  HIT:      26765  MISS:      31753  HIT %:    45.7381  MISS %:    54.2619   MPKI: 0.63506
STLB TRANSLATION FROM L1D PREFETCHER ACCESS:     308667  HIT:     308667  MISS:          0  HIT %:        100  MISS %:          0   MPKI: 0
STLB PREFETCH  REQUESTED:          0  ISSUED:          0  USEFUL:          0  USELESS:          0
STLB USEFUL LOAD PREFETCHES:          0 PREFETCH ISSUED TO LOWER LEVEL:          0  ACCURACY: -nan
STLB TIMELY PREFETCHES:          0 LATE PREFETCHES: 0 DROPPED PREFETCHES: 0
STLB PREFETCHES SAME FILL-ORIGIN LEVEL: 0 DIFFERENT FILL-ORIGIN LEVEL: 0
STLB AVERAGE MISS LATENCY: 189.46 cycles
STLB RQ	ACCESS:     576118	FORWARD:          0	MERGED:     208933	TO_CACHE:     367185

STLB Hit, L1D data hit: 0
STLB Hit, L2C data hit: 0
STLB Hit, LLC data hit: 0
STLB Hit, LLC data miss: 0
STLB STLB hints to L2: 0
L1D TOTAL     ACCESS:   12959913  HIT:    9383349  MISS:    3576564  HIT %:    72.4029  MISS %:    27.5971   MPKI: 71.5313
L1D LOAD      ACCESS:    4465940  HIT:    4195276  MISS:     270664  HIT %:    93.9394  MISS %:    6.06063   MPKI: 5.41328
L1D RFO       ACCESS:    8075375  HIT:    5120770  MISS:    2954605  HIT %:    63.4122  MISS %:    36.5878   MPKI: 59.0921
L1D PREFETCH  ACCESS:     418598  HIT:      67303  MISS:     351295  HIT %:    16.0782  MISS %:    83.9218   MPKI: 7.0259
L1D PREFETCH  REQUESTED:    1056289  ISSUED:    1035206  USEFUL:     246819  USELESS:     104482
L1D USEFUL LOAD PREFETCHES:     246819 PREFETCH ISSUED TO LOWER LEVEL:     393154  ACCURACY: 62.7792
L1D TIMELY PREFETCHES:     246819 LATE PREFETCHES: 41837 DROPPED PREFETCHES: 0
L1D PREFETCHES SAME FILL-ORIGIN LEVEL: 393154 DIFFERENT FILL-ORIGIN LEVEL: 0
L1D AVERAGE MISS LATENCY: 540696 cycles
L1D RQ	ACCESS:   12015968	FORWARD:          0	MERGED:    5921168	TO_CACHE:    4517770
L1D WQ	ACCESS:    8740015	FORWARD:    1577030	MERGED:     628346	TO_CACHE:    8111669
L1D PQ	ACCESS:     517606	FORWARD:          0	MERGED:          6	TO_CACHE:     517600

L1D UNIQUE REGIONS ACCESSED: 0
L1D REGIONS CONFLICTS: 0
L1D Cross Page Prefetch Requests: 0
L1D Same Page Prefetch Requests: 638316
L1D ROI Sum of L1D PQ occupancy: 434021184
L1D PREFETCHES PUSHED FROM L2C: 0
L1I TOTAL     ACCESS:    8638233  HIT:    8638233  MISS:          0  HIT %:        100  MISS %:          0   MPKI: 0
L1I LOAD      ACCESS:    8638233  HIT:    8638233  MISS:          0  HIT %:        100  MISS %:          0   MPKI: 0
L1I PREFETCH  REQUESTED:          0  ISSUED:          0  USEFUL:          0  USELESS:          0
L1I USEFUL LOAD PREFETCHES:          0 PREFETCH ISSUED TO LOWER LEVEL:          0  ACCURACY: -nan
L1I TIMELY PREFETCHES:          0 LATE PREFETCHES: 0 DROPPED PREFETCHES: 0
L1I PREFETCHES SAME FILL-ORIGIN LEVEL: 0 DIFFERENT FILL-ORIGIN LEVEL: 0
L1I AVERAGE MISS LATENCY: -nan cycles
L1I RQ	ACCESS:   12345159	FORWARD:          0	MERGED:    3706925	TO_CACHE:    8638234

BTB TOTAL     ACCESS:     800654  HIT:     800648  MISS:          6  HIT %:    99.9993  MISS %: 0.000749387   MPKI: 0.00012
BTB BRANCH_DIRECT_JUMP	ACCESS:     107474  HIT:     107473  MISS:          1
BTB BRANCH_INDIRECT	ACCESS:          0  HIT:          0  MISS:          0
BTB BRANCH_CONDITIONAL	ACCESS:     693180  HIT:     693175  MISS:          5
BTB BRANCH_DIRECT_CALL	ACCESS:          0  HIT:          0  MISS:          0
BTB BRANCH_INDIRECT_CALL	ACCESS:          0  HIT:          0  MISS:          0
BTB BRANCH_RETURN	ACCESS:          0  HIT:          0  MISS:          0
BTB BRANCH_OTHER ACCESS:          0  HIT:          0  MISS:          0

L2C TOTAL     ACCESS:    6766313  HIT:    4359344  MISS:    2406969  HIT %:    64.4272  MISS %:    35.5728   MPKI: 48.1394
L2C LOAD      ACCESS:     228827  HIT:     138437  MISS:      90390  HIT %:    60.4985  MISS %:    39.5015   MPKI: 1.8078
L2C DATA LOAD MPKI: 1.8078
L2C INSTRUCTION LOAD MPKI: 0
L2C RFO       ACCESS:    2947838  HIT:    1346213  MISS:    1601625  HIT %:    45.6678  MISS %:    54.3322   MPKI: 32.0325
L2C PREFETCH  ACCESS:     603269  HIT:     181075  MISS:     422194  HIT %:    30.0156  MISS %:    69.9844   MPKI: 8.44388
L2C DATA PREFETCH MPKI: 8.44388
L2C INSTRUCTION PREFETCH MPKI: 0
L2C WRITEBACK ACCESS:    2954624  HIT:    2666850  MISS:     287774  HIT %:    90.2602  MISS %:    9.73978   MPKI: 5.75548
L2C LOAD TRANSLATION ACCESS:      31755  HIT:      26769  MISS:       4986  HIT %:    84.2985  MISS %:    15.7015   MPKI: 0.09972
L2C PREFETCH  REQUESTED:     425303  ISSUED:     425290  USEFUL:     130600  USELESS:     292495
L2C USEFUL LOAD PREFETCHES:     130600 PREFETCH ISSUED TO LOWER LEVEL:     433807  ACCURACY: 30.1056
L2C TIMELY PREFETCHES:     130600 LATE PREFETCHES: 11614 DROPPED PREFETCHES: 0
L2C PREFETCHES SAME FILL-ORIGIN LEVEL: 113923 DIFFERENT FILL-ORIGIN LEVEL: 0
L2C AVERAGE MISS LATENCY: 529.401 cycles
L2C RQ	ACCESS:    3215192	FORWARD:          0	MERGED:          0	TO_CACHE:    3208425
L2C WQ	ACCESS:    2954624	FORWARD:       6767	MERGED:          0	TO_CACHE:    2954624
L2C PQ	ACCESS:     818422	FORWARD:          0	MERGED:     123242	TO_CACHE:     695180

L2C Instructions Evicting Data 0
L2C Translations Evicting Data 4982
L2C Data Evicting Data 2110032
L2C Instructions Evicting Instructions 0
L2C Translations Evicting Instructions 0
L2C Data Evicting Instructions 0
L2C Instructions Evicting Translations 0
L2C Translations Evicting Translations 4
L2C Data Evicting Translations 4177
L2C Dense regions hint from L2: 0
PSCL5 TOTAL     ACCESS:      31753  HIT:      31753  MISS:          0  HIT %:        100  MISS %:          0   MPKI: 0
PSCL5 LOAD TRANSLATION ACCESS:      31753  HIT:      31753  MISS:          0  HIT %:        100  MISS %:          0   MPKI: 0
PSCL5 PREFETCH  REQUESTED:          0  ISSUED:          0  USEFUL:          0  USELESS:          0
PSCL5 USEFUL LOAD PREFETCHES:          0 PREFETCH ISSUED TO LOWER LEVEL:          0  ACCURACY: -nan
PSCL5 TIMELY PREFETCHES:          0 LATE PREFETCHES: 0 DROPPED PREFETCHES: 0
PSCL5 PREFETCHES SAME FILL-ORIGIN LEVEL: 0 DIFFERENT FILL-ORIGIN LEVEL: 0

PSCL4 TOTAL     ACCESS:      31753  HIT:      31753  MISS:          0  HIT %:        100  MISS %:          0   MPKI: 0
PSCL4 LOAD TRANSLATION ACCESS:      31753  HIT:      31753  MISS:          0  HIT %:        100  MISS %:          0   MPKI: 0
PSCL4 PREFETCH  REQUESTED:          0  ISSUED:          0  USEFUL:          0  USELESS:          0
PSCL4 USEFUL LOAD PREFETCHES:          0 PREFETCH ISSUED TO LOWER LEVEL:          0  ACCURACY: -nan
PSCL4 TIMELY PREFETCHES:          0 LATE PREFETCHES: 0 DROPPED PREFETCHES: 0
PSCL4 PREFETCHES SAME FILL-ORIGIN LEVEL: 0 DIFFERENT FILL-ORIGIN LEVEL: 0

PSCL3 TOTAL     ACCESS:      31753  HIT:      31753  MISS:          0  HIT %:        100  MISS %:          0   MPKI: 0
PSCL3 LOAD TRANSLATION ACCESS:      31753  HIT:      31753  MISS:          0  HIT %:        100  MISS %:          0   MPKI: 0
PSCL3 PREFETCH  REQUESTED:          0  ISSUED:          0  USEFUL:          0  USELESS:          0
PSCL3 USEFUL LOAD PREFETCHES:          0 PREFETCH ISSUED TO LOWER LEVEL:          0  ACCURACY: -nan
PSCL3 TIMELY PREFETCHES:          0 LATE PREFETCHES: 0 DROPPED PREFETCHES: 0
PSCL3 PREFETCHES SAME FILL-ORIGIN LEVEL: 0 DIFFERENT FILL-ORIGIN LEVEL: 0

PSCL2 TOTAL     ACCESS:      31753  HIT:      31719  MISS:         34  HIT %:    99.8929  MISS %:   0.107076   MPKI: 0.00068
PSCL2 LOAD TRANSLATION ACCESS:      31753  HIT:      31719  MISS:         34  HIT %:    99.8929  MISS %:   0.107076   MPKI: 0.00068
PSCL2 PREFETCH  REQUESTED:          0  ISSUED:          0  USEFUL:          0  USELESS:          0
PSCL2 USEFUL LOAD PREFETCHES:          0 PREFETCH ISSUED TO LOWER LEVEL:          0  ACCURACY: -nan
PSCL2 TIMELY PREFETCHES:          0 LATE PREFETCHES: 0 DROPPED PREFETCHES: 0
PSCL2 PREFETCHES SAME FILL-ORIGIN LEVEL: 0 DIFFERENT FILL-ORIGIN LEVEL: 0

LLC TOTAL     ACCESS:    3719566  HIT:    1659958  MISS:    2059608  HIT %:    44.6277  MISS %:    55.3723   MPKI: 41.1922
LLC LOAD      ACCESS:      78776  HIT:       2244  MISS:      76532  HIT %:    2.84858  MISS %:    97.1514   MPKI: 1.53064
LLC RFO       ACCESS:    1601480  HIT:      77789  MISS:    1523691  HIT %:    4.85732  MISS %:    95.1427   MPKI: 30.4738
LLC PREFETCH  ACCESS:     433808  HIT:       2396  MISS:     431412  HIT %:   0.552318  MISS %:    99.4477   MPKI: 8.62824
LLC WRITEBACK ACCESS:    1600516  HIT:    1576566  MISS:      23950  HIT %:    98.5036  MISS %:    1.49639   MPKI: 0.479
LLC LOAD TRANSLATION ACCESS:       4986  HIT:        963  MISS:       4023  HIT %:    19.3141  MISS %:    80.6859   MPKI: 0.08046
LLC PREFETCH  REQUESTED:          0  ISSUED:          0  USEFUL:       2211  USELESS:     431702
LLC USEFUL LOAD PREFETCHES:       2211 PREFETCH ISSUED TO LOWER LEVEL:     431412  ACCURACY: 0.512503
LLC TIMELY PREFETCHES:       2211 LATE PREFETCHES: 0 DROPPED PREFETCHES: 0
LLC PREFETCHES SAME FILL-ORIGIN LEVEL: 0 DIFFERENT FILL-ORIGIN LEVEL: 0
LLC AVERAGE MISS LATENCY: 589.945 cycles
LLC RQ	ACCESS:    1685392	FORWARD:          0	MERGED:          0	TO_CACHE:    1685247
LLC WQ	ACCESS:    1600516	FORWARD:        145	MERGED:          0	TO_CACHE:    1600516
LLC PQ	ACCESS:     433807	FORWARD:          0	MERGED:          0	TO_CACHE:     433807

LLC Dense regions hint to LLC: 0

RAW hits: 658912
Loads Generated: 12674880
Loads sent to L1D: 12015968
Stores Generated: 8740011
Stores sent to L1D: 8740015
Major fault: 0 Minor fault: 22569
Allocated PAGES: 22569

stream: 
stream:times selected: 2032829
stream:pref_filled: 81313
stream:pref_useful: 68232
stream:pref_late: 14652
stream:misses: 33466
stream:misses_by_poll: 0

CS: 
CS:times selected: 376438
CS:pref_filled: 186390
CS:pref_useful: 121480
CS:pref_late: 16546
CS:misses: 129637
CS:misses_by_poll: 932

CPLX: 
CPLX:times selected: 1654389
CPLX:pref_filled: 191018
CPLX:pref_useful: 129435
CPLX:pref_late: 12683
CPLX:misses: 190610
CPLX:misses_by_poll: 751

NL_L1: 
NL:times selected: 932
NL:pref_filled: 39
NL:pref_useful: 14
NL:pref_late: 22
NL:misses: 137
NL:misses_by_poll: 0

total selections: 4064588
total_filled: 351295
total_useful: 246819
total_late: 45317
total_polluted: 1683
total_misses_after_warmup: 322493
conflicts: 118761
Degree Incremented Times: 21639
Degree Decremented Times: 0

L1 IP Table Write Accesses: 4051070
L1 IP Table Read Accesses: 3932309
L1 RST Write Accesses: 1634620
L1 RST Read Accesses: 3269240
L1 CSPT Write Accesses: 1634620
L1 CSPT Read Accesses: 5162832
L1 RR Filter Tag Write Accesses: 538689
L1 RR Filter Tag Read Accesses: 270591408
L1 IP Table Tag Write Accesses: 4517769
L1 IP Table Tag Read Accesses: 4517769
L1 RST Tag Write Accesses: 0
L1 RST Tag Read Accesses: 14704158
L1 RR Filter Write Accesses: 0
L1 RR Filter Read Accesses: 12192845
test: 295785
L2 IP Table Read Accesses: 1170368
L2 IP Table Write Accesses: 941921
L2 IP Table Tag Read Accesses: 585535
L2 IP Table Tag Write Accesses: 585535

DRAM Statistics
 CHANNEL 0
 RQ ROW_BUFFER_HIT:     158226  ROW_BUFFER_MISS:    1877432
 DBUS_CONGESTED:          0
 WQ ROW_BUFFER_HIT:     214326  ROW_BUFFER_MISS:    1307574  FULL:          0

 AVG_CONGESTED_CYCLE: -
 All warmup complete: 2
Channel 0 Bank busy for read cycles: 0
Channel 0 Bank busy for write cycles: 0
Channel 0
Rank 0
0banks busy for read cycles: 9408
0banks busy for write cycles: 0
1banks busy for read cycles: 651444
1banks busy for write cycles: 150931
2banks busy for read cycles: 957480
2banks busy for write cycles: 150929
3banks busy for read cycles: 1743484
3banks busy for write cycles: 150926
4banks busy for read cycles: 3437617
4banks busy for write cycles: 150922
5banks busy for read cycles: 8109298
5banks busy for write cycles: 150950
6banks busy for read cycles: 11151961
6banks busy for write cycles: 156382
7banks busy for read cycles: 14181077
7banks busy for write cycles: 1829145
8banks busy for read cycles: 13039397
8banks busy for write cycles: 34259094

CPU 0 Branch Prediction Accuracy: 95.9387% MPKI: 0.6505 Average ROB Occupancy at Mispredict: 164.164
Branch types
NOT_BRANCH: 49198820 98.3976%
BRANCH_DIRECT_JUMP: 107474 0.214948%
BRANCH_INDIRECT: 0 0%
BRANCH_CONDITIONAL: 693373 1.38675%
BRANCH_DIRECT_CALL: 0 0%
BRANCH_INDIRECT_CALL: 0 0%
BRANCH_RETURN: 0 0%
BRANCH_OTHER: 0 0%

@sumon_overall_L1D    246819     41837    104482    351295   1035206   1056289
@Sumon_Early_by_class_L1D     51632    100266     94858        17
@Sumon_Late_by_class_L1D     12146     16499     12063        17

@Sumon_Early_by_cycle_L1D     22945     20902     19284     39402     24865     99440     15653      4321         7         0         0         0
@Sumon_Late_by_cycle_L1D      7589      6952     13960      8806      1865      2644        21         0         0         0         0         0
@Sumon_Early_stream_L1D      7357      8230      5906     13049      6404     10673        13         0         0         0         0         0
@Sumon_Early_CS_L1D      8918      6575      6383     13677      8056     53726      2925         6         0         0         0         0
@Sumon_Early_CPLX_L1D      6665      6090      6990     12668     10401     35011     12711      4315         7         0         0         0
@Sumon_Late_stream_L1D      2110      1849      4229      2477       649       828         4         0         0         0         0         0
@Sumon_Late_CS_L1D      2324      2839      4990      3975       868      1487        16         0         0         0         0         0
@Sumon_Late_CPLX_L1D      2048      2255      4731      2352       348       328         1         0         0         0         0         0
@sumon_overall_L2C    130600     11614    292495    422194    425290    425303
@Sumon_Early_by_class_L2C     50221     47441     32792         0
@Sumon_Late_by_class_L2C     11556         0         0         0

@Sumon_Early_by_cycle_L2C      7021      5190      6450     16609      6524     70807     15366      2602        31         0         0         0
@Sumon_Late_by_cycle_L2C      1196      3019      3246      2681       472       994         6         0         0         0         0         0
@Sumon_Early_stream_L2C      6965      4660      5797     12809      3813     15963       214         0         0         0         0         0
@Sumon_Early_CS_L2C        17       256       376      2455      1858     38738      3735         6         0         0         0         0
@Sumon_Early_CPLX_L2C        34       272       271      1337       852     16052     11357      2586        31         0         0         0
@Sumon_Late_stream_L2C      1141      3019      3245      2680       472       993         6         0         0         0         0         0
@Sumon_Late_CS_L2C         0         0         0         0         0         0         0         0         0         0         0         0
@Sumon_Late_CPLX_L2C         0         0         0         0         0         0         0         0         0         0         0         0
DRAM PAGES: 1048576
Allocated PAGES: 22569
