
*** ChampSim Multicore Out-of-Order Simulator ***

Warmup Instructions: 10000000
Simulation Instructions: 50000000
Number of CPUs: 1
LLC sets: 2048
LLC ways: 16
Off-chip DRAM Size: 4096 MB Channels: 1 Width: 64-bit Data Rate: 6400 MT/s
CPU 0 runs traces/SPEC2017/620.omnetpp_s-141B.champsimtrace.xz
.xz
CPU 0 Bimodal branch predictor
BTB has LRU replacement policy
ITLB has LRU replacement policy
DTLB has LRU replacement policy
STLB has LRU replacement policy
L1I has LRU replacement policy
IP Table Entries: 256
Initialize DRRIP state for L1D
IP_Table L2 entries: 256
Initialize DRRIP state for L2C
Initialize DRRIP state for LLC
Heartbeat CPU 0 instructions: 10000001 cycles: 3919535 heartbeat IPC: 2.55132 cumulative IPC: 2.55132 (Simulation time: 0 hr 14 min 17 sec) 

Warmup complete CPU 0 instructions: 10000001 cycles: 3919535 (Simulation time: 0 hr 14 min 17 sec) 

Heartbeat CPU 0 instructions: 20000003 cycles: 53031751 heartbeat IPC: 0.203615 cumulative IPC: 0.203615 (Simulation time: 0 hr 28 min 6 sec) 
Heartbeat CPU 0 instructions: 30000000 cycles: 101729915 heartbeat IPC: 0.205346 cumulative IPC: 0.204477 (Simulation time: 0 hr 41 min 50 sec) 
Heartbeat CPU 0 instructions: 40000002 cycles: 150789087 heartbeat IPC: 0.203836 cumulative IPC: 0.204263 (Simulation time: 0 hr 55 min 3 sec) 
Heartbeat CPU 0 instructions: 50000001 cycles: 199763935 heartbeat IPC: 0.204186 cumulative IPC: 0.204244 (Simulation time: 1 hr 3 min 33 sec) 
Heartbeat CPU 0 instructions: 60000001 cycles: 247719459 heartbeat IPC: 0.208527 cumulative IPC: 0.205086 (Simulation time: 1 hr 8 min 35 sec) 
Finished CPU 0 instructions: 50000000 cycles: 243799924 cumulative IPC: 0.205086 (Simulation time: 1 hr 8 min 35 sec) 

ChampSim completed all CPUs

Region of Interest Statistics

CPU 0 cumulative IPC: 0.205086 instructions: 50000000 cycles: 243799924
ITLB TOTAL     ACCESS:    8422730  HIT:    8343274  MISS:      79456  HIT %:    99.0566  MISS %:   0.943352   MPKI: 1.58912
ITLB LOAD TRANSLATION ACCESS:    8422730  HIT:    8343274  MISS:      79456  HIT %:    99.0566  MISS %:   0.943352   MPKI: 1.58912
ITLB PREFETCH  REQUESTED:          0  ISSUED:          0  USEFUL:          0  USELESS:          0
ITLB USEFUL LOAD PREFETCHES:          0 PREFETCH ISSUED TO LOWER LEVEL:          0  ACCURACY: -nan
ITLB TIMELY PREFETCHES:          0 LATE PREFETCHES: 0 DROPPED PREFETCHES: 0
ITLB PREFETCHES SAME FILL-ORIGIN LEVEL: 0 DIFFERENT FILL-ORIGIN LEVEL: 0
ITLB AVERAGE MISS LATENCY: 9.77549 cycles
ITLB RQ	ACCESS:    9471734	FORWARD:          0	MERGED:    1027563	TO_CACHE:    8444171

DTLB TOTAL     ACCESS:   19773627  HIT:   18737458  MISS:    1036169  HIT %:    94.7598  MISS %:    5.24016   MPKI: 20.7234
DTLB LOAD TRANSLATION ACCESS:   19773627  HIT:   18737458  MISS:    1036169  HIT %:    94.7598  MISS %:    5.24016   MPKI: 20.7234
DTLB PREFETCH  REQUESTED:          0  ISSUED:          0  USEFUL:          0  USELESS:          0
DTLB USEFUL LOAD PREFETCHES:          0 PREFETCH ISSUED TO LOWER LEVEL:          0  ACCURACY: -nan
DTLB TIMELY PREFETCHES:          0 LATE PREFETCHES: 0 DROPPED PREFETCHES: 0
DTLB PREFETCHES SAME FILL-ORIGIN LEVEL: 0 DIFFERENT FILL-ORIGIN LEVEL: 0
DTLB AVERAGE MISS LATENCY: 31.8328 cycles
DTLB RQ	ACCESS:   22314332	FORWARD:          0	MERGED:    2521056	TO_CACHE:   19793276

STLB TOTAL     ACCESS:    2932766  HIT:    2687930  MISS:     244836  HIT %:    91.6517  MISS %:     8.3483   MPKI: 4.89672
STLB LOAD TRANSLATION ACCESS:    1115625  HIT:     870789  MISS:     244836  HIT %:    78.0539  MISS %:    21.9461   MPKI: 4.89672
STLB TRANSLATION FROM L1D PREFETCHER ACCESS:    1817141  HIT:    1817141  MISS:          0  HIT %:        100  MISS %:          0   MPKI: 0
STLB PREFETCH  REQUESTED:          0  ISSUED:          0  USEFUL:          0  USELESS:          0
STLB USEFUL LOAD PREFETCHES:          0 PREFETCH ISSUED TO LOWER LEVEL:          0  ACCURACY: -nan
STLB TIMELY PREFETCHES:          0 LATE PREFETCHES: 0 DROPPED PREFETCHES: 0
STLB PREFETCHES SAME FILL-ORIGIN LEVEL: 0 DIFFERENT FILL-ORIGIN LEVEL: 0
STLB AVERAGE MISS LATENCY: 96.5883 cycles
STLB RQ	ACCESS:    3297309	FORWARD:          0	MERGED:     364541	TO_CACHE:    2932768

STLB Hit, L1D data hit: 0
STLB Hit, L2C data hit: 0
STLB Hit, LLC data hit: 0
STLB Hit, LLC data miss: 0
STLB STLB hints to L2: 0
L1D TOTAL     ACCESS:   24136078  HIT:   22379243  MISS:    1756835  HIT %:    92.7211  MISS %:    7.27888   MPKI: 35.1367
L1D LOAD      ACCESS:   13053850  HIT:   12248971  MISS:     804879  HIT %:    93.8342  MISS %:    6.16584   MPKI: 16.0976
L1D RFO       ACCESS:    8972731  HIT:    8866155  MISS:     106576  HIT %:    98.8122  MISS %:    1.18778   MPKI: 2.13152
L1D PREFETCH  ACCESS:    2109497  HIT:    1264117  MISS:     845380  HIT %:     59.925  MISS %:     40.075   MPKI: 16.9076
L1D PREFETCH  REQUESTED:    4363713  ISSUED:    4363713  USEFUL:      89605  USELESS:     755801
L1D USEFUL LOAD PREFETCHES:      89605 PREFETCH ISSUED TO LOWER LEVEL:     859384  ACCURACY: 10.4267
L1D TIMELY PREFETCHES:      89605 LATE PREFETCHES: 11914 DROPPED PREFETCHES: 0
L1D PREFETCHES SAME FILL-ORIGIN LEVEL: 859384 DIFFERENT FILL-ORIGIN LEVEL: 0
L1D AVERAGE MISS LATENCY: 985884 cycles
L1D RQ	ACCESS:   16097737	FORWARD:          0	MERGED:    2335415	TO_CACHE:   13148067
L1D WQ	ACCESS:    9244293	FORWARD:     614600	MERGED:      78028	TO_CACHE:    9166265
L1D PQ	ACCESS:    2182029	FORWARD:          0	MERGED:          0	TO_CACHE:    2181684

L1D UNIQUE REGIONS ACCESSED: 0
L1D REGIONS CONFLICTS: 0
L1D Cross Page Prefetch Requests: 0
L1D Same Page Prefetch Requests: 2591595
L1D ROI Sum of L1D PQ occupancy: 28282409
L1D PREFETCHES PUSHED FROM L2C: 0
L1I TOTAL     ACCESS:    9462540  HIT:    9434410  MISS:      28130  HIT %:    99.7027  MISS %:   0.297277   MPKI: 0.5626
L1I LOAD      ACCESS:    9462540  HIT:    9434410  MISS:      28130  HIT %:    99.7027  MISS %:   0.297277   MPKI: 0.5626
L1I PREFETCH  REQUESTED:          0  ISSUED:          0  USEFUL:          0  USELESS:          0
L1I USEFUL LOAD PREFETCHES:          0 PREFETCH ISSUED TO LOWER LEVEL:          0  ACCURACY: -nan
L1I TIMELY PREFETCHES:          0 LATE PREFETCHES: 0 DROPPED PREFETCHES: 0
L1I PREFETCHES SAME FILL-ORIGIN LEVEL: 0 DIFFERENT FILL-ORIGIN LEVEL: 0
L1I AVERAGE MISS LATENCY: 28.1292 cycles
L1I RQ	ACCESS:   14251963	FORWARD:          0	MERGED:    4780229	TO_CACHE:    9471734

BTB TOTAL     ACCESS:    8225391  HIT:    7750603  MISS:     474788  HIT %:    94.2278  MISS %:    5.77222   MPKI: 9.49576
BTB BRANCH_DIRECT_JUMP	ACCESS:     579052  HIT:     578930  MISS:        122
BTB BRANCH_INDIRECT	ACCESS:     167557  HIT:     143171  MISS:      24386
BTB BRANCH_CONDITIONAL	ACCESS:    4432757  HIT:    4432296  MISS:        461
BTB BRANCH_DIRECT_CALL	ACCESS:     933677  HIT:     933435  MISS:        242
BTB BRANCH_INDIRECT_CALL	ACCESS:     589336  HIT:     587040  MISS:       2296
BTB BRANCH_RETURN	ACCESS:    1523012  HIT:    1075731  MISS:     447281
BTB BRANCH_OTHER ACCESS:          0  HIT:          0  MISS:          0

L2C TOTAL     ACCESS:    2676068  HIT:    1301156  MISS:    1374912  HIT %:    48.6219  MISS %:    51.3781   MPKI: 27.4982
L2C LOAD      ACCESS:     821062  HIT:     289815  MISS:     531247  HIT %:    35.2976  MISS %:    64.7024   MPKI: 10.6249
L2C DATA LOAD MPKI: 10.5283
L2C INSTRUCTION LOAD MPKI: 0.09666
L2C RFO       ACCESS:     104468  HIT:      21212  MISS:      83256  HIT %:    20.3048  MISS %:    79.6952   MPKI: 1.66512
L2C PREFETCH  ACCESS:     946810  HIT:     354786  MISS:     592024  HIT %:    37.4717  MISS %:    62.5283   MPKI: 11.8405
L2C DATA PREFETCH MPKI: 11.8405
L2C INSTRUCTION PREFETCH MPKI: 0
L2C WRITEBACK ACCESS:     453393  HIT:     442951  MISS:      10442  HIT %:    97.6969  MISS %:    2.30308   MPKI: 0.20884
L2C LOAD TRANSLATION ACCESS:     350335  HIT:     192392  MISS:     157943  HIT %:    54.9166  MISS %:    45.0834   MPKI: 3.15886
L2C PREFETCH  REQUESTED:      95217  ISSUED:      95217  USEFUL:      41998  USELESS:     550003
L2C USEFUL LOAD PREFETCHES:      41998 PREFETCH ISSUED TO LOWER LEVEL:     592942  ACCURACY: 7.08299
L2C TIMELY PREFETCHES:      41998 LATE PREFETCHES: 917 DROPPED PREFETCHES: 0
L2C PREFETCHES SAME FILL-ORIGIN LEVEL: 48236 DIFFERENT FILL-ORIGIN LEVEL: 0
L2C AVERAGE MISS LATENCY: 148.78 cycles
L2C RQ	ACCESS:    1275917	FORWARD:          0	MERGED:          0	TO_CACHE:    1275865
L2C WQ	ACCESS:     453393	FORWARD:         59	MERGED:          0	TO_CACHE:     453393
L2C PQ	ACCESS:     954601	FORWARD:          0	MERGED:       2104	TO_CACHE:     952490

L2C Instructions Evicting Data 4310
L2C Translations Evicting Data 139423
L2C Data Evicting Data 1059229
L2C Instructions Evicting Instructions 54
L2C Translations Evicting Instructions 485
L2C Data Evicting Instructions 4226
L2C Instructions Evicting Translations 469
L2C Translations Evicting Translations 18035
L2C Data Evicting Translations 138239
L2C Dense regions hint from L2: 0
PSCL5 TOTAL     ACCESS:     244836  HIT:     244836  MISS:          0  HIT %:        100  MISS %:          0   MPKI: 0
PSCL5 LOAD TRANSLATION ACCESS:     244836  HIT:     244836  MISS:          0  HIT %:        100  MISS %:          0   MPKI: 0
PSCL5 PREFETCH  REQUESTED:          0  ISSUED:          0  USEFUL:          0  USELESS:          0
PSCL5 USEFUL LOAD PREFETCHES:          0 PREFETCH ISSUED TO LOWER LEVEL:          0  ACCURACY: -nan
PSCL5 TIMELY PREFETCHES:          0 LATE PREFETCHES: 0 DROPPED PREFETCHES: 0
PSCL5 PREFETCHES SAME FILL-ORIGIN LEVEL: 0 DIFFERENT FILL-ORIGIN LEVEL: 0

PSCL4 TOTAL     ACCESS:     244836  HIT:     244836  MISS:          0  HIT %:        100  MISS %:          0   MPKI: 0
PSCL4 LOAD TRANSLATION ACCESS:     244836  HIT:     244836  MISS:          0  HIT %:        100  MISS %:          0   MPKI: 0
PSCL4 PREFETCH  REQUESTED:          0  ISSUED:          0  USEFUL:          0  USELESS:          0
PSCL4 USEFUL LOAD PREFETCHES:          0 PREFETCH ISSUED TO LOWER LEVEL:          0  ACCURACY: -nan
PSCL4 TIMELY PREFETCHES:          0 LATE PREFETCHES: 0 DROPPED PREFETCHES: 0
PSCL4 PREFETCHES SAME FILL-ORIGIN LEVEL: 0 DIFFERENT FILL-ORIGIN LEVEL: 0

PSCL3 TOTAL     ACCESS:     244836  HIT:     244836  MISS:          0  HIT %:        100  MISS %:          0   MPKI: 0
PSCL3 LOAD TRANSLATION ACCESS:     244836  HIT:     244836  MISS:          0  HIT %:        100  MISS %:          0   MPKI: 0
PSCL3 PREFETCH  REQUESTED:          0  ISSUED:          0  USEFUL:          0  USELESS:          0
PSCL3 USEFUL LOAD PREFETCHES:          0 PREFETCH ISSUED TO LOWER LEVEL:          0  ACCURACY: -nan
PSCL3 TIMELY PREFETCHES:          0 LATE PREFETCHES: 0 DROPPED PREFETCHES: 0
PSCL3 PREFETCHES SAME FILL-ORIGIN LEVEL: 0 DIFFERENT FILL-ORIGIN LEVEL: 0

PSCL2 TOTAL     ACCESS:     244836  HIT:     139337  MISS:     105499  HIT %:    56.9103  MISS %:    43.0897   MPKI: 2.10998
PSCL2 LOAD TRANSLATION ACCESS:     244836  HIT:     139337  MISS:     105499  HIT %:    56.9103  MISS %:    43.0897   MPKI: 2.10998
PSCL2 PREFETCH  REQUESTED:          0  ISSUED:          0  USEFUL:          0  USELESS:          0
PSCL2 USEFUL LOAD PREFETCHES:          0 PREFETCH ISSUED TO LOWER LEVEL:          0  ACCURACY: -nan
PSCL2 TIMELY PREFETCHES:          0 LATE PREFETCHES: 0 DROPPED PREFETCHES: 0
PSCL2 PREFETCHES SAME FILL-ORIGIN LEVEL: 0 DIFFERENT FILL-ORIGIN LEVEL: 0

LLC TOTAL     ACCESS:    1729496  HIT:     735886  MISS:     993610  HIT %:    42.5492  MISS %:    57.4508   MPKI: 19.8722
LLC LOAD      ACCESS:     530379  HIT:     127434  MISS:     402945  HIT %:     24.027  MISS %:     75.973   MPKI: 8.0589
LLC RFO       ACCESS:      83203  HIT:      26455  MISS:      56748  HIT %:    31.7957  MISS %:    68.2043   MPKI: 1.13496
LLC PREFETCH  ACCESS:     592940  HIT:     115936  MISS:     477004  HIT %:    19.5527  MISS %:    80.4473   MPKI: 9.54008
LLC WRITEBACK ACCESS:     365031  HIT:     357132  MISS:       7899  HIT %:    97.8361  MISS %:    2.16393   MPKI: 0.15798
LLC LOAD TRANSLATION ACCESS:     157943  HIT:     108929  MISS:      49014  HIT %:    68.9673  MISS %:    31.0327   MPKI: 0.98028
LLC PREFETCH  REQUESTED:          0  ISSUED:          0  USEFUL:      18013  USELESS:     458706
LLC USEFUL LOAD PREFETCHES:      18013 PREFETCH ISSUED TO LOWER LEVEL:     477005  ACCURACY: 3.77627
LLC TIMELY PREFETCHES:      18013 LATE PREFETCHES: 0 DROPPED PREFETCHES: 0
LLC PREFETCHES SAME FILL-ORIGIN LEVEL: 0 DIFFERENT FILL-ORIGIN LEVEL: 0
LLC AVERAGE MISS LATENCY: 164.37 cycles
LLC RQ	ACCESS:     771529	FORWARD:          0	MERGED:          0	TO_CACHE:     771525
LLC WQ	ACCESS:     365031	FORWARD:          5	MERGED:          0	TO_CACHE:     365031
LLC PQ	ACCESS:     592942	FORWARD:          0	MERGED:          0	TO_CACHE:     592941

LLC Dense regions hint to LLC: 0

RAW hits: 610042
Loads Generated: 16707774
Loads sent to L1D: 16097737
Stores Generated: 9244296
Stores sent to L1D: 9244293
Major fault: 0 Minor fault: 47196
Allocated PAGES: 47196

stream: 
stream:times selected: 4093057
stream:pref_filled: 697960
stream:pref_useful: 92484
stream:pref_late: 13738
stream:misses: 150783
stream:misses_by_poll: 0

CS: 
CS:times selected: 21787
CS:pref_filled: 7033
CS:pref_useful: 1334
CS:pref_late: 1
CS:misses: 530
CS:misses_by_poll: 0

CPLX: 
CPLX:times selected: 4065492
CPLX:pref_filled: 287370
CPLX:pref_useful: 9254
CPLX:pref_late: 606
CPLX:misses: 486040
CPLX:misses_by_poll: 558

NL_L1: 
NL:times selected: 21072
NL:pref_filled: 7955
NL:pref_useful: 981
NL:pref_late: 195
NL:misses: 5715
NL:misses_by_poll: 3

total selections: 8201408
total_filled: 845380
total_useful: 89605
total_late: 14904
total_polluted: 561
total_misses_after_warmup: 899101
conflicts: 1901543
Degree Incremented Times: 0
Degree Decremented Times: 297698

L1 IP Table Write Accesses: 9728295
L1 IP Table Read Accesses: 7826752
L1 RST Write Accesses: 3523637
L1 RST Read Accesses: 7047274
L1 CSPT Write Accesses: 3523637
L1 CSPT Read Accesses: 7024213
L1 RR Filter Tag Write Accesses: 2182029
L1 RR Filter Tag Read Accesses: 126607642
L1 IP Table Tag Write Accesses: 13148072
L1 IP Table Tag Read Accesses: 13148072
L1 RST Tag Write Accesses: 0
L1 RST Tag Read Accesses: 38487841
L1 RR Filter Write Accesses: 0
L1 RR Filter Read Accesses: 4384428
test: 1915566
L2 IP Table Read Accesses: 3200853
L2 IP Table Write Accesses: 2522665
L2 IP Table Tag Read Accesses: 1648658
L2 IP Table Tag Write Accesses: 1648658

DRAM Statistics
 CHANNEL 0
 RQ ROW_BUFFER_HIT:      96776  ROW_BUFFER_MISS:     888928
 DBUS_CONGESTED:        215
 WQ ROW_BUFFER_HIT:      61747  ROW_BUFFER_MISS:     205236  FULL:          0

 AVG_CONGESTED_CYCLE: 4
 All warmup complete: 2
Channel 0 Bank busy for read cycles: 0
Channel 0 Bank busy for write cycles: 0
Channel 0
Rank 0
0banks busy for read cycles: 124872799
0banks busy for write cycles: 144393
1banks busy for read cycles: 47047869
1banks busy for write cycles: 21710582
2banks busy for read cycles: 25707376
2banks busy for write cycles: 8380439
3banks busy for read cycles: 7855619
3banks busy for write cycles: 2951575
4banks busy for read cycles: 2789932
4banks busy for write cycles: 967716
5banks busy for read cycles: 771384
5banks busy for write cycles: 311956
6banks busy for read cycles: 163296
6banks busy for write cycles: 81574
7banks busy for read cycles: 20573
7banks busy for write cycles: 20309
8banks busy for read cycles: 1167
8banks busy for write cycles: 1366

CPU 0 Branch Prediction Accuracy: 94.7385% MPKI: 11.0762 Average ROB Occupancy at Mispredict: 24.6595
Branch types
NOT_BRANCH: 39473974 78.9479%
BRANCH_DIRECT_JUMP: 579052 1.1581%
BRANCH_INDIRECT: 167557 0.335114%
BRANCH_CONDITIONAL: 6733127 13.4663%
BRANCH_DIRECT_CALL: 933677 1.86735%
BRANCH_INDIRECT_CALL: 589336 1.17867%
BRANCH_RETURN: 1523012 3.04602%
BRANCH_OTHER: 0 0%

@sumon_overall_L1D     89605     11914    755801    845380   4363713   4363713
@Sumon_Early_by_class_L1D     78658      1124      7824       154
@Sumon_Late_by_class_L1D     10924         0       534       154

@Sumon_Early_by_cycle_L1D     17897      7833      6534      3608      3120     14735     12171      7389      2869      5380      3632      4437
@Sumon_Late_by_cycle_L1D      2870      9013        31         0         0         0         0         0         0         0         0         0
@Sumon_Early_stream_L1D     16578      6880      5767      3122      2789     13064     10453      6257      2362      4452      3076      3858
@Sumon_Early_CS_L1D         3         6         4         3         8         6       665       307        53        31        12        26
@Sumon_Early_CPLX_L1D       598       449       664       407       281      1437       917       760       423       852       521       515
@Sumon_Late_stream_L1D      2327      8569        28         0         0         0         0         0         0         0         0         0
@Sumon_Late_CS_L1D         0         0         0         0         0         0         0         0         0         0         0         0
@Sumon_Late_CPLX_L1D       213       318         3         0         0         0         0         0         0         0         0         0
@sumon_overall_L2C     41998       917    550003    592024     95217     95217
@Sumon_Early_by_class_L2C     22610       243      6892         0
@Sumon_Late_by_class_L2C         0         0         0         0

@Sumon_Early_by_cycle_L2C      1539       989       455       552       739      3625      4959      1754      1216      3037      2787     20346
@Sumon_Late_by_cycle_L2C       577       335         5         0         0         0         0         0         0         0         0         0
@Sumon_Early_stream_L2C        30        80        87        53        62       836      1647       830       456      2161      1828     14540
@Sumon_Early_CS_L2C         0         0         1         0         0         1       106        54        46        18         5        12
@Sumon_Early_CPLX_L2C         1         2         6        11         4        78       141       150       129       530       699      5141
@Sumon_Late_stream_L2C         0         0         0         0         0         0         0         0         0         0         0         0
@Sumon_Late_CS_L2C         0         0         0         0         0         0         0         0         0         0         0         0
@Sumon_Late_CPLX_L2C         0         0         0         0         0         0         0         0         0         0         0         0
DRAM PAGES: 1048576
Allocated PAGES: 47196
