
*** ChampSim Multicore Out-of-Order Simulator ***

Warmup Instructions: 10000000
Simulation Instructions: 50000000
Number of CPUs: 1
LLC sets: 2048
LLC ways: 16
Off-chip DRAM Size: 4096 MB Channels: 1 Width: 64-bit Data Rate: 6400 MT/s
CPU 0 runs traces/SPEC2017/620.omnetpp_s-874B.champsimtrace.xz
.xz
CPU 0 Bimodal branch predictor
BTB has LRU replacement policy
ITLB has LRU replacement policy
DTLB has LRU replacement policy
STLB has LRU replacement policy
L1I has LRU replacement policy
IP Table Entries: 256
Initialize DRRIP state for L1D
IP_Table L2 entries: 256
Initialize DRRIP state for L2C
Initialize DRRIP state for LLC
Heartbeat CPU 0 instructions: 10000001 cycles: 3908384 heartbeat IPC: 2.5586 cumulative IPC: 2.5586 (Simulation time: 0 hr 13 min 58 sec) 

Warmup complete CPU 0 instructions: 10000001 cycles: 3908384 (Simulation time: 0 hr 13 min 58 sec) 

Heartbeat CPU 0 instructions: 20000000 cycles: 49516149 heartbeat IPC: 0.219261 cumulative IPC: 0.219261 (Simulation time: 0 hr 27 min 24 sec) 
Heartbeat CPU 0 instructions: 30000002 cycles: 95150477 heartbeat IPC: 0.219133 cumulative IPC: 0.219197 (Simulation time: 0 hr 40 min 54 sec) 
Heartbeat CPU 0 instructions: 40000000 cycles: 141274264 heartbeat IPC: 0.216808 cumulative IPC: 0.218395 (Simulation time: 0 hr 54 min 5 sec) 
Heartbeat CPU 0 instructions: 50000001 cycles: 187433594 heartbeat IPC: 0.216641 cumulative IPC: 0.217954 (Simulation time: 1 hr 2 min 54 sec) 
Heartbeat CPU 0 instructions: 60000001 cycles: 233371625 heartbeat IPC: 0.217685 cumulative IPC: 0.2179 (Simulation time: 1 hr 8 min 9 sec) 
Finished CPU 0 instructions: 50000000 cycles: 229463241 cumulative IPC: 0.2179 (Simulation time: 1 hr 8 min 9 sec) 

ChampSim completed all CPUs

Region of Interest Statistics

CPU 0 cumulative IPC: 0.2179 instructions: 50000000 cycles: 229463241
ITLB TOTAL     ACCESS:    8266012  HIT:    8186385  MISS:      79627  HIT %:    99.0367  MISS %:   0.963306   MPKI: 1.59254
ITLB LOAD TRANSLATION ACCESS:    8266012  HIT:    8186385  MISS:      79627  HIT %:    99.0367  MISS %:   0.963306   MPKI: 1.59254
ITLB PREFETCH  REQUESTED:          0  ISSUED:          0  USEFUL:          0  USELESS:          0
ITLB USEFUL LOAD PREFETCHES:          0 PREFETCH ISSUED TO LOWER LEVEL:          0  ACCURACY: -nan
ITLB TIMELY PREFETCHES:          0 LATE PREFETCHES: 0 DROPPED PREFETCHES: 0
ITLB PREFETCHES SAME FILL-ORIGIN LEVEL: 0 DIFFERENT FILL-ORIGIN LEVEL: 0
ITLB AVERAGE MISS LATENCY: 9.96359 cycles
ITLB RQ	ACCESS:    9321221	FORWARD:          0	MERGED:    1030851	TO_CACHE:    8290370

DTLB TOTAL     ACCESS:   19550806  HIT:   18591349  MISS:     959457  HIT %:    95.0925  MISS %:    4.90751   MPKI: 19.1891
DTLB LOAD TRANSLATION ACCESS:   19550806  HIT:   18591349  MISS:     959457  HIT %:    95.0925  MISS %:    4.90751   MPKI: 19.1891
DTLB PREFETCH  REQUESTED:          0  ISSUED:          0  USEFUL:          0  USELESS:          0
DTLB USEFUL LOAD PREFETCHES:          0 PREFETCH ISSUED TO LOWER LEVEL:          0  ACCURACY: -nan
DTLB TIMELY PREFETCHES:          0 LATE PREFETCHES: 0 DROPPED PREFETCHES: 0
DTLB PREFETCHES SAME FILL-ORIGIN LEVEL: 0 DIFFERENT FILL-ORIGIN LEVEL: 0
DTLB AVERAGE MISS LATENCY: 30.9545 cycles
DTLB RQ	ACCESS:   22023068	FORWARD:          0	MERGED:    2456997	TO_CACHE:   19566071

STLB TOTAL     ACCESS:    2862155  HIT:    2646405  MISS:     215750  HIT %:     92.462  MISS %:    7.53803   MPKI: 4.315
STLB LOAD TRANSLATION ACCESS:    1039084  HIT:     823334  MISS:     215750  HIT %:    79.2365  MISS %:    20.7635   MPKI: 4.315
STLB TRANSLATION FROM L1D PREFETCHER ACCESS:    1823071  HIT:    1823071  MISS:          0  HIT %:        100  MISS %:          0   MPKI: 0
STLB PREFETCH  REQUESTED:          0  ISSUED:          0  USEFUL:          0  USELESS:          0
STLB USEFUL LOAD PREFETCHES:          0 PREFETCH ISSUED TO LOWER LEVEL:          0  ACCURACY: -nan
STLB TIMELY PREFETCHES:          0 LATE PREFETCHES: 0 DROPPED PREFETCHES: 0
STLB PREFETCHES SAME FILL-ORIGIN LEVEL: 0 DIFFERENT FILL-ORIGIN LEVEL: 0
STLB AVERAGE MISS LATENCY: 97.699 cycles
STLB RQ	ACCESS:    3289049	FORWARD:          0	MERGED:     426893	TO_CACHE:    2862156

STLB Hit, L1D data hit: 0
STLB Hit, L2C data hit: 0
STLB Hit, LLC data hit: 0
STLB Hit, LLC data miss: 0
STLB STLB hints to L2: 0
L1D TOTAL     ACCESS:   23932241  HIT:   22181442  MISS:    1750799  HIT %:    92.6843  MISS %:    7.31565   MPKI: 35.016
L1D LOAD      ACCESS:   12729642  HIT:   11940175  MISS:     789467  HIT %:    93.7982  MISS %:     6.2018   MPKI: 15.7893
L1D RFO       ACCESS:    9032625  HIT:    8922474  MISS:     110151  HIT %:    98.7805  MISS %:    1.21948   MPKI: 2.20302
L1D PREFETCH  ACCESS:    2169974  HIT:    1318793  MISS:     851181  HIT %:    60.7746  MISS %:    39.2254   MPKI: 17.0236
L1D PREFETCH  REQUESTED:    4500358  ISSUED:    4500354  USEFUL:      91668  USELESS:     759474
L1D USEFUL LOAD PREFETCHES:      91668 PREFETCH ISSUED TO LOWER LEVEL:     866575  ACCURACY: 10.5782
L1D TIMELY PREFETCHES:      91668 LATE PREFETCHES: 13396 DROPPED PREFETCHES: 0
L1D PREFETCHES SAME FILL-ORIGIN LEVEL: 866575 DIFFERENT FILL-ORIGIN LEVEL: 0
L1D AVERAGE MISS LATENCY: 1.06735e+06 cycles
L1D RQ	ACCESS:   16245164	FORWARD:          0	MERGED:    2801475	TO_CACHE:   12817409
L1D WQ	ACCESS:    9281775	FORWARD:     626706	MERGED:      76116	TO_CACHE:    9205659
L1D PQ	ACCESS:    2250390	FORWARD:          0	MERGED:          0	TO_CACHE:    2249964

L1D UNIQUE REGIONS ACCESSED: 0
L1D REGIONS CONFLICTS: 0
L1D Cross Page Prefetch Requests: 0
L1D Same Page Prefetch Requests: 2672029
L1D ROI Sum of L1D PQ occupancy: 29218900
L1D PREFETCHES PUSHED FROM L2C: 0
L1I TOTAL     ACCESS:    9314714  HIT:    9296140  MISS:      18574  HIT %:    99.8006  MISS %:   0.199405   MPKI: 0.37148
L1I LOAD      ACCESS:    9314714  HIT:    9296140  MISS:      18574  HIT %:    99.8006  MISS %:   0.199405   MPKI: 0.37148
L1I PREFETCH  REQUESTED:          0  ISSUED:          0  USEFUL:          0  USELESS:          0
L1I USEFUL LOAD PREFETCHES:          0 PREFETCH ISSUED TO LOWER LEVEL:          0  ACCURACY: -nan
L1I TIMELY PREFETCHES:          0 LATE PREFETCHES: 0 DROPPED PREFETCHES: 0
L1I PREFETCHES SAME FILL-ORIGIN LEVEL: 0 DIFFERENT FILL-ORIGIN LEVEL: 0
L1I AVERAGE MISS LATENCY: 29.1467 cycles
L1I RQ	ACCESS:   14346976	FORWARD:          0	MERGED:    5025755	TO_CACHE:    9321221

BTB TOTAL     ACCESS:    7896296  HIT:    7421687  MISS:     474609  HIT %:    93.9895  MISS %:    6.01053   MPKI: 9.49218
BTB BRANCH_DIRECT_JUMP	ACCESS:     569513  HIT:     569409  MISS:        104
BTB BRANCH_INDIRECT	ACCESS:     168336  HIT:     146852  MISS:      21484
BTB BRANCH_CONDITIONAL	ACCESS:    4189086  HIT:    4188659  MISS:        427
BTB BRANCH_DIRECT_CALL	ACCESS:     886019  HIT:     885794  MISS:        225
BTB BRANCH_INDIRECT_CALL	ACCESS:     598662  HIT:     596661  MISS:       2001
BTB BRANCH_RETURN	ACCESS:    1484680  HIT:    1034312  MISS:     450368
BTB BRANCH_OTHER ACCESS:          0  HIT:          0  MISS:          0

L2C TOTAL     ACCESS:    2614438  HIT:    1299174  MISS:    1315264  HIT %:    49.6923  MISS %:    50.3077   MPKI: 26.3053
L2C LOAD      ACCESS:     794615  HIT:     300597  MISS:     494018  HIT %:    37.8293  MISS %:    62.1707   MPKI: 9.88036
L2C DATA LOAD MPKI: 9.79348
L2C INSTRUCTION LOAD MPKI: 0.08688
L2C RFO       ACCESS:     108132  HIT:      28036  MISS:      80096  HIT %:    25.9276  MISS %:    74.0724   MPKI: 1.60192
L2C PREFETCH  ACCESS:     948187  HIT:     343810  MISS:     604377  HIT %:    36.2597  MISS %:    63.7403   MPKI: 12.0875
L2C DATA PREFETCH MPKI: 12.0875
L2C INSTRUCTION PREFETCH MPKI: 0
L2C WRITEBACK ACCESS:     457874  HIT:     448360  MISS:       9514  HIT %:    97.9221  MISS %:    2.07786   MPKI: 0.19028
L2C LOAD TRANSLATION ACCESS:     305630  HIT:     178371  MISS:     127259  HIT %:    58.3617  MISS %:    41.6383   MPKI: 2.54518
L2C PREFETCH  REQUESTED:      87096  ISSUED:      87096  USEFUL:      48889  USELESS:     555460
L2C USEFUL LOAD PREFETCHES:      48889 PREFETCH ISSUED TO LOWER LEVEL:     605161  ACCURACY: 8.07868
L2C TIMELY PREFETCHES:      48889 LATE PREFETCHES: 784 DROPPED PREFETCHES: 0
L2C PREFETCHES SAME FILL-ORIGIN LEVEL: 46467 DIFFERENT FILL-ORIGIN LEVEL: 0
L2C AVERAGE MISS LATENCY: 146.694 cycles
L2C RQ	ACCESS:    1208427	FORWARD:          0	MERGED:          0	TO_CACHE:    1208377
L2C WQ	ACCESS:     457874	FORWARD:         55	MERGED:          0	TO_CACHE:     457874
L2C PQ	ACCESS:     953671	FORWARD:          0	MERGED:       1537	TO_CACHE:     952129

L2C Instructions Evicting Data 3586
L2C Translations Evicting Data 114455
L2C Data Evicting Data 1057021
L2C Instructions Evicting Instructions 467
L2C Translations Evicting Instructions 269
L2C Data Evicting Instructions 3459
L2C Instructions Evicting Translations 291
L2C Translations Evicting Translations 12535
L2C Data Evicting Translations 113667
L2C Dense regions hint from L2: 0
PSCL5 TOTAL     ACCESS:     215750  HIT:     215750  MISS:          0  HIT %:        100  MISS %:          0   MPKI: 0
PSCL5 LOAD TRANSLATION ACCESS:     215750  HIT:     215750  MISS:          0  HIT %:        100  MISS %:          0   MPKI: 0
PSCL5 PREFETCH  REQUESTED:          0  ISSUED:          0  USEFUL:          0  USELESS:          0
PSCL5 USEFUL LOAD PREFETCHES:          0 PREFETCH ISSUED TO LOWER LEVEL:          0  ACCURACY: -nan
PSCL5 TIMELY PREFETCHES:          0 LATE PREFETCHES: 0 DROPPED PREFETCHES: 0
PSCL5 PREFETCHES SAME FILL-ORIGIN LEVEL: 0 DIFFERENT FILL-ORIGIN LEVEL: 0

PSCL4 TOTAL     ACCESS:     215750  HIT:     215750  MISS:          0  HIT %:        100  MISS %:          0   MPKI: 0
PSCL4 LOAD TRANSLATION ACCESS:     215750  HIT:     215750  MISS:          0  HIT %:        100  MISS %:          0   MPKI: 0
PSCL4 PREFETCH  REQUESTED:          0  ISSUED:          0  USEFUL:          0  USELESS:          0
PSCL4 USEFUL LOAD PREFETCHES:          0 PREFETCH ISSUED TO LOWER LEVEL:          0  ACCURACY: -nan
PSCL4 TIMELY PREFETCHES:          0 LATE PREFETCHES: 0 DROPPED PREFETCHES: 0
PSCL4 PREFETCHES SAME FILL-ORIGIN LEVEL: 0 DIFFERENT FILL-ORIGIN LEVEL: 0

PSCL3 TOTAL     ACCESS:     215750  HIT:     215750  MISS:          0  HIT %:        100  MISS %:          0   MPKI: 0
PSCL3 LOAD TRANSLATION ACCESS:     215750  HIT:     215750  MISS:          0  HIT %:        100  MISS %:          0   MPKI: 0
PSCL3 PREFETCH  REQUESTED:          0  ISSUED:          0  USEFUL:          0  USELESS:          0
PSCL3 USEFUL LOAD PREFETCHES:          0 PREFETCH ISSUED TO LOWER LEVEL:          0  ACCURACY: -nan
PSCL3 TIMELY PREFETCHES:          0 LATE PREFETCHES: 0 DROPPED PREFETCHES: 0
PSCL3 PREFETCHES SAME FILL-ORIGIN LEVEL: 0 DIFFERENT FILL-ORIGIN LEVEL: 0

PSCL2 TOTAL     ACCESS:     215750  HIT:     125870  MISS:      89880  HIT %:    58.3407  MISS %:    41.6593   MPKI: 1.7976
PSCL2 LOAD TRANSLATION ACCESS:     215750  HIT:     125870  MISS:      89880  HIT %:    58.3407  MISS %:    41.6593   MPKI: 1.7976
PSCL2 PREFETCH  REQUESTED:          0  ISSUED:          0  USEFUL:          0  USELESS:          0
PSCL2 USEFUL LOAD PREFETCHES:          0 PREFETCH ISSUED TO LOWER LEVEL:          0  ACCURACY: -nan
PSCL2 TIMELY PREFETCHES:          0 LATE PREFETCHES: 0 DROPPED PREFETCHES: 0
PSCL2 PREFETCHES SAME FILL-ORIGIN LEVEL: 0 DIFFERENT FILL-ORIGIN LEVEL: 0

LLC TOTAL     ACCESS:    1659558  HIT:     714985  MISS:     944573  HIT %:    43.0829  MISS %:    56.9171   MPKI: 18.8915
LLC LOAD      ACCESS:     493301  HIT:     132011  MISS:     361290  HIT %:    26.7607  MISS %:    73.2393   MPKI: 7.2258
LLC RFO       ACCESS:      80028  HIT:      30129  MISS:      49899  HIT %:    37.6481  MISS %:    62.3519   MPKI: 0.99798
LLC PREFETCH  ACCESS:     605159  HIT:     123864  MISS:     481295  HIT %:     20.468  MISS %:     79.532   MPKI: 9.6259
LLC WRITEBACK ACCESS:     353811  HIT:     345789  MISS:       8022  HIT %:    97.7327  MISS %:    2.26731   MPKI: 0.16044
LLC LOAD TRANSLATION ACCESS:     127259  HIT:      83192  MISS:      44067  HIT %:    65.3722  MISS %:    34.6278   MPKI: 0.88134
LLC PREFETCH  REQUESTED:          0  ISSUED:          0  USEFUL:      22577  USELESS:     458635
LLC USEFUL LOAD PREFETCHES:      22577 PREFETCH ISSUED TO LOWER LEVEL:     481295  ACCURACY: 4.69089
LLC TIMELY PREFETCHES:      22577 LATE PREFETCHES: 0 DROPPED PREFETCHES: 0
LLC PREFETCHES SAME FILL-ORIGIN LEVEL: 0 DIFFERENT FILL-ORIGIN LEVEL: 0
LLC AVERAGE MISS LATENCY: 162.418 cycles
LLC RQ	ACCESS:     700589	FORWARD:          0	MERGED:          0	TO_CACHE:     700588
LLC WQ	ACCESS:     353810	FORWARD:          3	MERGED:          0	TO_CACHE:     353810
LLC PQ	ACCESS:     605161	FORWARD:          0	MERGED:          0	TO_CACHE:     605159

LLC Dense regions hint to LLC: 0

RAW hits: 643896
Loads Generated: 16889060
Loads sent to L1D: 16245164
Stores Generated: 9281774
Stores sent to L1D: 9281775
Major fault: 0 Minor fault: 45883
Allocated PAGES: 45883

stream: 
stream:times selected: 4003294
stream:pref_filled: 673477
stream:pref_useful: 95460
stream:pref_late: 15522
stream:misses: 153440
stream:misses_by_poll: 0

CS: 
CS:times selected: 32404
CS:pref_filled: 12602
CS:pref_useful: 1349
CS:pref_late: 1
CS:misses: 1130
CS:misses_by_poll: 3

CPLX: 
CPLX:times selected: 3973698
CPLX:pref_filled: 315500
CPLX:pref_useful: 9648
CPLX:pref_late: 599
CPLX:misses: 496045
CPLX:misses_by_poll: 577

NL_L1: 
NL:times selected: 17462
NL:pref_filled: 7201
NL:pref_useful: 886
NL:pref_late: 205
NL:misses: 5452
NL:misses_by_poll: 2

total selections: 8026858
total_filled: 851181
total_useful: 91668
total_late: 16790
total_polluted: 582
total_misses_after_warmup: 877232
conflicts: 1769849
Degree Incremented Times: 0
Degree Decremented Times: 257162

L1 IP Table Write Accesses: 9538265
L1 IP Table Read Accesses: 7768416
L1 RST Write Accesses: 3429072
L1 RST Read Accesses: 6858144
L1 CSPT Write Accesses: 3429072
L1 CSPT Read Accesses: 6832273
L1 RR Filter Tag Write Accesses: 2250394
L1 RR Filter Tag Read Accesses: 127767551
L1 IP Table Tag Write Accesses: 12817407
L1 IP Table Tag Read Accesses: 12817407
L1 RST Tag Write Accesses: 0
L1 RST Tag Read Accesses: 29526559
L1 RR Filter Write Accesses: 0
L1 RR Filter Read Accesses: 4408598
test: 1930976
L2 IP Table Read Accesses: 3191141
L2 IP Table Write Accesses: 2519598
L2 IP Table Tag Read Accesses: 1639701
L2 IP Table Tag Write Accesses: 1639701

DRAM Statistics
 CHANNEL 0
 RQ ROW_BUFFER_HIT:     111703  ROW_BUFFER_MISS:     824844
 DBUS_CONGESTED:        218
 WQ ROW_BUFFER_HIT:      55548  ROW_BUFFER_MISS:     194499  FULL:          0

 AVG_CONGESTED_CYCLE: 5
 All warmup complete: 2
Channel 0 Bank busy for read cycles: 0
Channel 0 Bank busy for write cycles: 0
Channel 0
Rank 0
0banks busy for read cycles: 119424631
0banks busy for write cycles: 134142
1banks busy for read cycles: 43201427
1banks busy for write cycles: 19818263
2banks busy for read cycles: 23576467
2banks busy for write cycles: 7874984
3banks busy for read cycles: 7653601
3banks busy for write cycles: 2801858
4banks busy for read cycles: 2746713
4banks busy for write cycles: 894916
5banks busy for read cycles: 768659
5banks busy for write cycles: 279751
6banks busy for read cycles: 163513
6banks busy for write cycles: 79243
7banks busy for read cycles: 23434
7banks busy for write cycles: 17884
8banks busy for read cycles: 2834
8banks busy for write cycles: 922

CPU 0 Branch Prediction Accuracy: 95.851% MPKI: 8.63412 Average ROB Occupancy at Mispredict: 29.4549
Branch types
NOT_BRANCH: 39594523 79.189%
BRANCH_DIRECT_JUMP: 569513 1.13903%
BRANCH_INDIRECT: 168336 0.336672%
BRANCH_CONDITIONAL: 6697939 13.3959%
BRANCH_DIRECT_CALL: 886019 1.77204%
BRANCH_INDIRECT_CALL: 598662 1.19732%
BRANCH_RETURN: 1484680 2.96936%
BRANCH_OTHER: 0 0%

@sumon_overall_L1D     91668     13396    759474    851181   4500354   4500358
@Sumon_Early_by_class_L1D     80950      1089      8183       147
@Sumon_Late_by_class_L1D     12350         0       534       147

@Sumon_Early_by_cycle_L1D     20546      7669      5745      4842      2057     14644     14708      6262      3150      4963      3103      3979
@Sumon_Late_by_cycle_L1D      3743      9623        29         1         0         0         0         0         0         0         0         0
@Sumon_Early_stream_L1D     19550      6932      4989      4247      1711     12772     12949      5177      2484      4111      2617      3411
@Sumon_Early_CS_L1D         2        19        50        27         8         3       631       124       133        58        11        23
@Sumon_Early_CPLX_L1D       560       480       634       467       308      1627       935       906       518       766       456       526
@Sumon_Late_stream_L1D      3112      9212        25         1         0         0         0         0         0         0         0         0
@Sumon_Late_CS_L1D         0         0         0         0         0         0         0         0         0         0         0         0
@Sumon_Late_CPLX_L1D       249       281         4         0         0         0         0         0         0         0         0         0
@sumon_overall_L2C     48889       784    555460    604377     87096     87096
@Sumon_Early_by_class_L2C     28826       443      7878         0
@Sumon_Late_by_class_L2C         0         0         0         0

@Sumon_Early_by_cycle_L2C       871       981       574       739       436      3516      4988      1427      1902      2569      2753     28133
@Sumon_Late_by_cycle_L2C       435       330        19         0         0         0         0         0         0         0         0         0
@Sumon_Early_stream_L2C        26        52        99        56        33       747      1760       612       646      1772      1761     21262
@Sumon_Early_CS_L2C         0         0         1         1         0         0        96        25       161        93        19        47
@Sumon_Early_CPLX_L2C         1         4         9        12        11        79       119       198       133       471       743      6098
@Sumon_Late_stream_L2C         0         0         0         0         0         0         0         0         0         0         0         0
@Sumon_Late_CS_L2C         0         0         0         0         0         0         0         0         0         0         0         0
@Sumon_Late_CPLX_L2C         0         0         0         0         0         0         0         0         0         0         0         0
DRAM PAGES: 1048576
Allocated PAGES: 45883
