
*** ChampSim Multicore Out-of-Order Simulator ***

Warmup Instructions: 10000000
Simulation Instructions: 50000000
Number of CPUs: 1
LLC sets: 2048
LLC ways: 16
Off-chip DRAM Size: 4096 MB Channels: 1 Width: 64-bit Data Rate: 6400 MT/s
CPU 0 runs traces/SPEC2017/649.fotonik3d_s-1176B.champsimtrace.xz
.xz
CPU 0 Bimodal branch predictor
BTB has LRU replacement policy
ITLB has LRU replacement policy
DTLB has LRU replacement policy
STLB has LRU replacement policy
L1I has LRU replacement policy
IP Table Entries: 256
Initialize DRRIP state for L1D
IP_Table L2 entries: 256
Initialize DRRIP state for L2C
Initialize DRRIP state for LLC
Heartbeat CPU 0 instructions: 10000000 cycles: 2903489 heartbeat IPC: 3.44413 cumulative IPC: 3.44413 (Simulation time: 0 hr 11 min 22 sec) 

Warmup complete CPU 0 instructions: 10000004 cycles: 2903490 (Simulation time: 0 hr 11 min 22 sec) 

Heartbeat CPU 0 instructions: 20000002 cycles: 12882997 heartbeat IPC: 1.00205 cumulative IPC: 1.00205 (Simulation time: 0 hr 19 min 14 sec) 
Heartbeat CPU 0 instructions: 30000001 cycles: 22865574 heartbeat IPC: 1.00175 cumulative IPC: 1.0019 (Simulation time: 0 hr 27 min 10 sec) 
Heartbeat CPU 0 instructions: 40000000 cycles: 32844704 heartbeat IPC: 1.00209 cumulative IPC: 1.00196 (Simulation time: 0 hr 35 min 13 sec) 
Heartbeat CPU 0 instructions: 50000002 cycles: 42827179 heartbeat IPC: 1.00176 cumulative IPC: 1.00191 (Simulation time: 0 hr 43 min 14 sec) 
Heartbeat CPU 0 instructions: 60000003 cycles: 52806965 heartbeat IPC: 1.00203 cumulative IPC: 1.00193 (Simulation time: 0 hr 51 min 2 sec) 
Finished CPU 0 instructions: 50000003 cycles: 49903476 cumulative IPC: 1.00193 (Simulation time: 0 hr 51 min 2 sec) 

ChampSim completed all CPUs

Region of Interest Statistics

CPU 0 cumulative IPC: 1.00193 instructions: 50000003 cycles: 49903476
ITLB TOTAL     ACCESS:    7017705  HIT:    7017705  MISS:          0  HIT %:        100  MISS %:          0   MPKI: 0
ITLB LOAD TRANSLATION ACCESS:    7017705  HIT:    7017705  MISS:          0  HIT %:        100  MISS %:          0   MPKI: 0
ITLB PREFETCH  REQUESTED:          0  ISSUED:          0  USEFUL:          0  USELESS:          0
ITLB USEFUL LOAD PREFETCHES:          0 PREFETCH ISSUED TO LOWER LEVEL:          0  ACCURACY: -nan
ITLB TIMELY PREFETCHES:          0 LATE PREFETCHES: 0 DROPPED PREFETCHES: 0
ITLB PREFETCHES SAME FILL-ORIGIN LEVEL: 0 DIFFERENT FILL-ORIGIN LEVEL: 0
ITLB AVERAGE MISS LATENCY: -nan cycles
ITLB RQ	ACCESS:    8772751	FORWARD:          0	MERGED:    1755046	TO_CACHE:    7017705

DTLB TOTAL     ACCESS:    8105103  HIT:    8093425  MISS:      11678  HIT %:    99.8559  MISS %:   0.144082   MPKI: 0.23356
DTLB LOAD TRANSLATION ACCESS:    8105103  HIT:    8093425  MISS:      11678  HIT %:    99.8559  MISS %:   0.144082   MPKI: 0.23356
DTLB PREFETCH  REQUESTED:          0  ISSUED:          0  USEFUL:          0  USELESS:          0
DTLB USEFUL LOAD PREFETCHES:          0 PREFETCH ISSUED TO LOWER LEVEL:          0  ACCURACY: -nan
DTLB TIMELY PREFETCHES:          0 LATE PREFETCHES: 0 DROPPED PREFETCHES: 0
DTLB PREFETCHES SAME FILL-ORIGIN LEVEL: 0 DIFFERENT FILL-ORIGIN LEVEL: 0
DTLB AVERAGE MISS LATENCY: 89.4461 cycles
DTLB RQ	ACCESS:   12559170	FORWARD:          0	MERGED:    4453269	TO_CACHE:    8105901

STLB TOTAL     ACCESS:     609157  HIT:     602294  MISS:       6863  HIT %:    98.8734  MISS %:    1.12664   MPKI: 0.13726
STLB LOAD TRANSLATION ACCESS:      11678  HIT:       4815  MISS:       6863  HIT %:    41.2314  MISS %:    58.7686   MPKI: 0.13726
STLB TRANSLATION FROM L1D PREFETCHER ACCESS:     597479  HIT:     597479  MISS:          0  HIT %:        100  MISS %:          0   MPKI: 0
STLB PREFETCH  REQUESTED:          0  ISSUED:          0  USEFUL:          0  USELESS:          0
STLB USEFUL LOAD PREFETCHES:          0 PREFETCH ISSUED TO LOWER LEVEL:          0  ACCURACY: -nan
STLB TIMELY PREFETCHES:          0 LATE PREFETCHES: 0 DROPPED PREFETCHES: 0
STLB PREFETCHES SAME FILL-ORIGIN LEVEL: 0 DIFFERENT FILL-ORIGIN LEVEL: 0
STLB AVERAGE MISS LATENCY: 136.696 cycles
STLB RQ	ACCESS:     671843	FORWARD:          0	MERGED:      62686	TO_CACHE:     609157

STLB Hit, L1D data hit: 0
STLB Hit, L2C data hit: 0
STLB Hit, LLC data hit: 0
STLB Hit, LLC data miss: 0
STLB STLB hints to L2: 0
L1D TOTAL     ACCESS:   13195069  HIT:   12485176  MISS:     709893  HIT %:      94.62  MISS %:    5.37999   MPKI: 14.1979
L1D LOAD      ACCESS:    9031258  HIT:    8965033  MISS:      66225  HIT %:    99.2667  MISS %:   0.733287   MPKI: 1.3245
L1D RFO       ACCESS:    3508866  HIT:    3508091  MISS:        775  HIT %:    99.9779  MISS %:  0.0220869   MPKI: 0.0155
L1D PREFETCH  ACCESS:     654945  HIT:      12052  MISS:     642893  HIT %:    1.84015  MISS %:    98.1598   MPKI: 12.8579
L1D PREFETCH  REQUESTED:    1320330  ISSUED:    1320330  USEFUL:     594800  USELESS:      48098
L1D USEFUL LOAD PREFETCHES:     594800 PREFETCH ISSUED TO LOWER LEVEL:     647416  ACCURACY: 91.8729
L1D TIMELY PREFETCHES:     594800 LATE PREFETCHES: 4047 DROPPED PREFETCHES: 0
L1D PREFETCHES SAME FILL-ORIGIN LEVEL: 647416 DIFFERENT FILL-ORIGIN LEVEL: 0
L1D AVERAGE MISS LATENCY: 158832 cycles
L1D RQ	ACCESS:   17541474	FORWARD:          0	MERGED:    8492462	TO_CACHE:    9048904
L1D WQ	ACCESS:    3510266	FORWARD:        108	MERGED:          0	TO_CACHE:    3510266
L1D PQ	ACCESS:     660165	FORWARD:          0	MERGED:          0	TO_CACHE:     660165

L1D UNIQUE REGIONS ACCESSED: 0
L1D REGIONS CONFLICTS: 0
L1D Cross Page Prefetch Requests: 0
L1D Same Page Prefetch Requests: 791229
L1D ROI Sum of L1D PQ occupancy: 8674863
L1D PREFETCHES PUSHED FROM L2C: 0
L1I TOTAL     ACCESS:    8772749  HIT:    8772749  MISS:          0  HIT %:        100  MISS %:          0   MPKI: 0
L1I LOAD      ACCESS:    8772749  HIT:    8772749  MISS:          0  HIT %:        100  MISS %:          0   MPKI: 0
L1I PREFETCH  REQUESTED:          0  ISSUED:          0  USEFUL:          0  USELESS:          0
L1I USEFUL LOAD PREFETCHES:          0 PREFETCH ISSUED TO LOWER LEVEL:          0  ACCURACY: -nan
L1I TIMELY PREFETCHES:          0 LATE PREFETCHES: 0 DROPPED PREFETCHES: 0
L1I PREFETCHES SAME FILL-ORIGIN LEVEL: 0 DIFFERENT FILL-ORIGIN LEVEL: 0
L1I AVERAGE MISS LATENCY: -nan cycles
L1I RQ	ACCESS:   11406844	FORWARD:          0	MERGED:    2634093	TO_CACHE:    8772751

BTB TOTAL     ACCESS:     877289  HIT:     877280  MISS:          9  HIT %:     99.999  MISS %: 0.00102589   MPKI: 0.00018
BTB BRANCH_DIRECT_JUMP	ACCESS:        218  HIT:        216  MISS:          2
BTB BRANCH_INDIRECT	ACCESS:          0  HIT:          0  MISS:          0
BTB BRANCH_CONDITIONAL	ACCESS:     876635  HIT:     876632  MISS:          3
BTB BRANCH_DIRECT_CALL	ACCESS:        218  HIT:        216  MISS:          2
BTB BRANCH_INDIRECT_CALL	ACCESS:          0  HIT:          0  MISS:          0
BTB BRANCH_RETURN	ACCESS:        218  HIT:        216  MISS:          2
BTB BRANCH_OTHER ACCESS:          0  HIT:          0  MISS:          0

L2C TOTAL     ACCESS:    4007686  HIT:    3567427  MISS:     440259  HIT %:    89.0146  MISS %:    10.9854   MPKI: 8.80518
L2C LOAD      ACCESS:      62178  HIT:      54619  MISS:       7559  HIT %:     87.843  MISS %:     12.157   MPKI: 0.15118
L2C DATA LOAD MPKI: 0.15118
L2C INSTRUCTION LOAD MPKI: 0
L2C RFO       ACCESS:        775  HIT:        767  MISS:          8  HIT %:    98.9677  MISS %:    1.03226   MPKI: 0.00016
L2C PREFETCH  ACCESS:    3498610  HIT:    3066907  MISS:     431703  HIT %:    87.6607  MISS %:    12.3393   MPKI: 8.63406
L2C DATA PREFETCH MPKI: 8.63406
L2C INSTRUCTION PREFETCH MPKI: 0
L2C WRITEBACK ACCESS:     439260  HIT:     439157  MISS:        103  HIT %:    99.9766  MISS %:  0.0234485   MPKI: 0.00206
L2C LOAD TRANSLATION ACCESS:       6863  HIT:       5977  MISS:        886  HIT %:    87.0902  MISS %:    12.9098   MPKI: 0.01772
L2C PREFETCH  REQUESTED:    3323657  ISSUED:    3323477  USEFUL:      19421  USELESS:     412658
L2C USEFUL LOAD PREFETCHES:      19421 PREFETCH ISSUED TO LOWER LEVEL:     431719  ACCURACY: 4.49853
L2C TIMELY PREFETCHES:      19421 LATE PREFETCHES: 14 DROPPED PREFETCHES: 0
L2C PREFETCHES SAME FILL-ORIGIN LEVEL: 383271 DIFFERENT FILL-ORIGIN LEVEL: 0
L2C AVERAGE MISS LATENCY: 192.866 cycles
L2C RQ	ACCESS:      69816	FORWARD:          0	MERGED:          0	TO_CACHE:      69816
L2C WQ	ACCESS:     439260	FORWARD:          0	MERGED:          0	TO_CACHE:     439260
L2C PQ	ACCESS:    3970418	FORWARD:          0	MERGED:     118182	TO_CACHE:    3852236

L2C Instructions Evicting Data 0
L2C Translations Evicting Data 885
L2C Data Evicting Data 438381
L2C Instructions Evicting Instructions 0
L2C Translations Evicting Instructions 0
L2C Data Evicting Instructions 0
L2C Instructions Evicting Translations 0
L2C Translations Evicting Translations 1
L2C Data Evicting Translations 889
L2C Dense regions hint from L2: 0
PSCL5 TOTAL     ACCESS:       6863  HIT:       6863  MISS:          0  HIT %:        100  MISS %:          0   MPKI: 0
PSCL5 LOAD TRANSLATION ACCESS:       6863  HIT:       6863  MISS:          0  HIT %:        100  MISS %:          0   MPKI: 0
PSCL5 PREFETCH  REQUESTED:          0  ISSUED:          0  USEFUL:          0  USELESS:          0
PSCL5 USEFUL LOAD PREFETCHES:          0 PREFETCH ISSUED TO LOWER LEVEL:          0  ACCURACY: -nan
PSCL5 TIMELY PREFETCHES:          0 LATE PREFETCHES: 0 DROPPED PREFETCHES: 0
PSCL5 PREFETCHES SAME FILL-ORIGIN LEVEL: 0 DIFFERENT FILL-ORIGIN LEVEL: 0

PSCL4 TOTAL     ACCESS:       6863  HIT:       6863  MISS:          0  HIT %:        100  MISS %:          0   MPKI: 0
PSCL4 LOAD TRANSLATION ACCESS:       6863  HIT:       6863  MISS:          0  HIT %:        100  MISS %:          0   MPKI: 0
PSCL4 PREFETCH  REQUESTED:          0  ISSUED:          0  USEFUL:          0  USELESS:          0
PSCL4 USEFUL LOAD PREFETCHES:          0 PREFETCH ISSUED TO LOWER LEVEL:          0  ACCURACY: -nan
PSCL4 TIMELY PREFETCHES:          0 LATE PREFETCHES: 0 DROPPED PREFETCHES: 0
PSCL4 PREFETCHES SAME FILL-ORIGIN LEVEL: 0 DIFFERENT FILL-ORIGIN LEVEL: 0

PSCL3 TOTAL     ACCESS:       6863  HIT:       6863  MISS:          0  HIT %:        100  MISS %:          0   MPKI: 0
PSCL3 LOAD TRANSLATION ACCESS:       6863  HIT:       6863  MISS:          0  HIT %:        100  MISS %:          0   MPKI: 0
PSCL3 PREFETCH  REQUESTED:          0  ISSUED:          0  USEFUL:          0  USELESS:          0
PSCL3 USEFUL LOAD PREFETCHES:          0 PREFETCH ISSUED TO LOWER LEVEL:          0  ACCURACY: -nan
PSCL3 TIMELY PREFETCHES:          0 LATE PREFETCHES: 0 DROPPED PREFETCHES: 0
PSCL3 PREFETCHES SAME FILL-ORIGIN LEVEL: 0 DIFFERENT FILL-ORIGIN LEVEL: 0

PSCL2 TOTAL     ACCESS:       6863  HIT:       6841  MISS:         22  HIT %:    99.6794  MISS %:    0.32056   MPKI: 0.00044
PSCL2 LOAD TRANSLATION ACCESS:       6863  HIT:       6841  MISS:         22  HIT %:    99.6794  MISS %:    0.32056   MPKI: 0.00044
PSCL2 PREFETCH  REQUESTED:          0  ISSUED:          0  USEFUL:          0  USELESS:          0
PSCL2 USEFUL LOAD PREFETCHES:          0 PREFETCH ISSUED TO LOWER LEVEL:          0  ACCURACY: -nan
PSCL2 TIMELY PREFETCHES:          0 LATE PREFETCHES: 0 DROPPED PREFETCHES: 0
PSCL2 PREFETCHES SAME FILL-ORIGIN LEVEL: 0 DIFFERENT FILL-ORIGIN LEVEL: 0

LLC TOTAL     ACCESS:     878446  HIT:     432016  MISS:     446430  HIT %:    49.1796  MISS %:    50.8204   MPKI: 8.9286
LLC LOAD      ACCESS:       7545  HIT:         51  MISS:       7494  HIT %:   0.675944  MISS %:    99.3241   MPKI: 0.14988
LLC RFO       ACCESS:          8  HIT:          8  MISS:          0  HIT %:        100  MISS %:          0   MPKI: 0
LLC PREFETCH  ACCESS:     431717  HIT:        300  MISS:     431417  HIT %:    0.06949  MISS %:    99.9305   MPKI: 8.62834
LLC WRITEBACK ACCESS:     438290  HIT:     431655  MISS:       6635  HIT %:    98.4862  MISS %:    1.51384   MPKI: 0.1327
LLC LOAD TRANSLATION ACCESS:        886  HIT:          2  MISS:        884  HIT %:   0.225734  MISS %:    99.7743   MPKI: 0.01768
LLC PREFETCH  REQUESTED:          0  ISSUED:          0  USEFUL:          5  USELESS:     431452
LLC USEFUL LOAD PREFETCHES:          5 PREFETCH ISSUED TO LOWER LEVEL:     431419  ACCURACY: 0.00115897
LLC TIMELY PREFETCHES:          5 LATE PREFETCHES: 0 DROPPED PREFETCHES: 0
LLC PREFETCHES SAME FILL-ORIGIN LEVEL: 0 DIFFERENT FILL-ORIGIN LEVEL: 0
LLC AVERAGE MISS LATENCY: 160.616 cycles
LLC RQ	ACCESS:       8439	FORWARD:          0	MERGED:          0	TO_CACHE:       8439
LLC WQ	ACCESS:     438290	FORWARD:          0	MERGED:          0	TO_CACHE:     438290
LLC PQ	ACCESS:     431719	FORWARD:          0	MERGED:          0	TO_CACHE:     431719

LLC Dense regions hint to LLC: 0

RAW hits: 787
Loads Generated: 17542256
Loads sent to L1D: 17541474
Stores Generated: 3510266
Stores sent to L1D: 3510266
Major fault: 0 Minor fault: 8337
Allocated PAGES: 8337

stream: 
stream:times selected: 1879366
stream:pref_filled: 764312
stream:pref_useful: 706869
stream:pref_late: 4094
stream:misses: 87
stream:misses_by_poll: 0

CS: 
CS:times selected: 1710154
CS:pref_filled: 3339
CS:pref_useful: 2795
CS:pref_late: 2
CS:misses: 88767
CS:misses_by_poll: 18

CPLX: 
CPLX:times selected: 169119
CPLX:pref_filled: 4923
CPLX:pref_useful: 4393
CPLX:pref_late: 1
CPLX:misses: 4716
CPLX:misses_by_poll: 10

NL_L1: 
NL:times selected: 23
NL:pref_filled: 1
NL:pref_useful: 1
NL:pref_late: 0
NL:misses: 0
NL:misses_by_poll: 0

total selections: 3758662
total_filled: 642893
total_useful: 594800
total_late: 4107
total_polluted: 28
total_misses_after_warmup: 83874
conflicts: 487
Degree Incremented Times: 147927
Degree Decremented Times: 0

L1 IP Table Write Accesses: 9047099
L1 IP Table Read Accesses: 9046612
L1 RST Write Accesses: 1500617
L1 RST Read Accesses: 3001234
L1 CSPT Write Accesses: 1500617
L1 CSPT Read Accesses: 1827990
L1 RR Filter Tag Write Accesses: 660165
L1 RR Filter Tag Read Accesses: 337717878
L1 IP Table Tag Write Accesses: 9048907
L1 IP Table Tag Read Accesses: 9048907
L1 RST Tag Write Accesses: 0
L1 RST Tag Read Accesses: 13536182
L1 RR Filter Write Accesses: 0
L1 RR Filter Read Accesses: 12823508
test: 47607
L2 IP Table Read Accesses: 1196229
L2 IP Table Write Accesses: 1134639
L2 IP Table Tag Read Accesses: 598428
L2 IP Table Tag Write Accesses: 598428

DRAM Statistics
 CHANNEL 0
 RQ ROW_BUFFER_HIT:      52492  ROW_BUFFER_MISS:     387303
 DBUS_CONGESTED:        324
 WQ ROW_BUFFER_HIT:     259743  ROW_BUFFER_MISS:     178532  FULL:          0

 AVG_CONGESTED_CYCLE: 6
 All warmup complete: 2
Channel 0 Bank busy for read cycles: 0
Channel 0 Bank busy for write cycles: 0
Channel 0
Rank 0
0banks busy for read cycles: 5559307
0banks busy for write cycles: 8970
1banks busy for read cycles: 20545006
1banks busy for write cycles: 589619
2banks busy for read cycles: 10832191
2banks busy for write cycles: 284190
3banks busy for read cycles: 1121153
3banks busy for write cycles: 257549
4banks busy for read cycles: 465735
4banks busy for write cycles: 288343
5banks busy for read cycles: 197565
5banks busy for write cycles: 326879
6banks busy for read cycles: 174877
6banks busy for write cycles: 369790
7banks busy for read cycles: 1191321
7banks busy for write cycles: 1173047
8banks busy for read cycles: 363892
8banks busy for write cycles: 6154043

CPU 0 Branch Prediction Accuracy: 99.9751% MPKI: 0.00438 Average ROB Occupancy at Mispredict: 49.2511
Branch types
NOT_BRANCH: 49121612 98.2432%
BRANCH_DIRECT_JUMP: 218 0.000436%
BRANCH_INDIRECT: 0 0%
BRANCH_CONDITIONAL: 877399 1.7548%
BRANCH_DIRECT_CALL: 218 0.000436%
BRANCH_INDIRECT_CALL: 0 0%
BRANCH_RETURN: 218 0.000436%
BRANCH_OTHER: 0 0%

@sumon_overall_L1D    594800      4047     48098    642893   1320330   1320330
@Sumon_Early_by_class_L1D    592283      1184      1310         0
@Sumon_Late_by_class_L1D      4034         2         1         0

@Sumon_Early_by_cycle_L1D      6097     21253     30292    360086      4107    172960         5         0         0         0         0         0
@Sumon_Late_by_cycle_L1D        18      4029         0         0         0         0         0         0         0         0         0         0
@Sumon_Early_stream_L1D      6072     20547     29986    359618      3510    172550         0         0         0         0         0         0
@Sumon_Early_CS_L1D        11       570       271       188        69        75         0         0         0         0         0         0
@Sumon_Early_CPLX_L1D         1       129        32       280       528       335         5         0         0         0         0         0
@Sumon_Late_stream_L1D        13      4021         0         0         0         0         0         0         0         0         0         0
@Sumon_Late_CS_L1D         2         0         0         0         0         0         0         0         0         0         0         0
@Sumon_Late_CPLX_L1D         1         0         0         0         0         0         0         0         0         0         0         0
@sumon_overall_L2C     19421        14    412658    431703   3323477   3323657
@Sumon_Early_by_class_L2C     19364        20        36         0
@Sumon_Late_by_class_L2C        12         2         0         0

@Sumon_Early_by_cycle_L2C        27       102      2330       875      3007     12180         0         0         0         0         0       900
@Sumon_Late_by_cycle_L2C         3        11         0         0         0         0         0         0         0         0         0         0
@Sumon_Early_stream_L2C        23        92      2324       870      3004     12156         0         0         0         0         0       895
@Sumon_Early_CS_L2C         4        10         6         0         0         0         0         0         0         0         0         0
@Sumon_Early_CPLX_L2C         0         0         0         5         3        24         0         0         0         0         0         4
@Sumon_Late_stream_L2C         1        11         0         0         0         0         0         0         0         0         0         0
@Sumon_Late_CS_L2C         2         0         0         0         0         0         0         0         0         0         0         0
@Sumon_Late_CPLX_L2C         0         0         0         0         0         0         0         0         0         0         0         0
DRAM PAGES: 1048576
Allocated PAGES: 8337
