
*** ChampSim Multicore Out-of-Order Simulator ***

Warmup Instructions: 10000000
Simulation Instructions: 50000000
Number of CPUs: 1
LLC sets: 2048
LLC ways: 16
Off-chip DRAM Size: 4096 MB Channels: 1 Width: 64-bit Data Rate: 6400 MT/s
CPU 0 runs traces/SPEC2017/649.fotonik3d_s-8225B.champsimtrace.xz
.xz
CPU 0 Bimodal branch predictor
BTB has LRU replacement policy
ITLB has LRU replacement policy
DTLB has LRU replacement policy
STLB has LRU replacement policy
L1I has LRU replacement policy
IP Table Entries: 256
Initialize DRRIP state for L1D
IP_Table L2 entries: 256
Initialize DRRIP state for L2C
Initialize DRRIP state for LLC
Heartbeat CPU 0 instructions: 10000001 cycles: 2904249 heartbeat IPC: 3.44323 cumulative IPC: 3.44323 (Simulation time: 0 hr 11 min 34 sec) 

Warmup complete CPU 0 instructions: 10000001 cycles: 2904249 (Simulation time: 0 hr 11 min 34 sec) 

Heartbeat CPU 0 instructions: 20000001 cycles: 12886297 heartbeat IPC: 1.0018 cumulative IPC: 1.0018 (Simulation time: 0 hr 19 min 29 sec) 
Heartbeat CPU 0 instructions: 30000001 cycles: 22864784 heartbeat IPC: 1.00216 cumulative IPC: 1.00198 (Simulation time: 0 hr 27 min 39 sec) 
Heartbeat CPU 0 instructions: 40000002 cycles: 32846605 heartbeat IPC: 1.00182 cumulative IPC: 1.00193 (Simulation time: 0 hr 35 min 38 sec) 
Heartbeat CPU 0 instructions: 50000003 cycles: 42825944 heartbeat IPC: 1.00207 cumulative IPC: 1.00196 (Simulation time: 0 hr 43 min 47 sec) 
Heartbeat CPU 0 instructions: 60000000 cycles: 52805947 heartbeat IPC: 1.002 cumulative IPC: 1.00197 (Simulation time: 0 hr 51 min 44 sec) 
Finished CPU 0 instructions: 50000003 cycles: 49901699 cumulative IPC: 1.00197 (Simulation time: 0 hr 51 min 44 sec) 

ChampSim completed all CPUs

Region of Interest Statistics

CPU 0 cumulative IPC: 1.00197 instructions: 50000003 cycles: 49901699
ITLB TOTAL     ACCESS:    7017673  HIT:    7017673  MISS:          0  HIT %:        100  MISS %:          0   MPKI: 0
ITLB LOAD TRANSLATION ACCESS:    7017673  HIT:    7017673  MISS:          0  HIT %:        100  MISS %:          0   MPKI: 0
ITLB PREFETCH  REQUESTED:          0  ISSUED:          0  USEFUL:          0  USELESS:          0
ITLB USEFUL LOAD PREFETCHES:          0 PREFETCH ISSUED TO LOWER LEVEL:          0  ACCURACY: -nan
ITLB TIMELY PREFETCHES:          0 LATE PREFETCHES: 0 DROPPED PREFETCHES: 0
ITLB PREFETCHES SAME FILL-ORIGIN LEVEL: 0 DIFFERENT FILL-ORIGIN LEVEL: 0
ITLB AVERAGE MISS LATENCY: -nan cycles
ITLB RQ	ACCESS:    8772740	FORWARD:          0	MERGED:    1755066	TO_CACHE:    7017674

DTLB TOTAL     ACCESS:    8105860  HIT:    8094068  MISS:      11792  HIT %:    99.8545  MISS %:   0.145475   MPKI: 0.23584
DTLB LOAD TRANSLATION ACCESS:    8105860  HIT:    8094068  MISS:      11792  HIT %:    99.8545  MISS %:   0.145475   MPKI: 0.23584
DTLB PREFETCH  REQUESTED:          0  ISSUED:          0  USEFUL:          0  USELESS:          0
DTLB USEFUL LOAD PREFETCHES:          0 PREFETCH ISSUED TO LOWER LEVEL:          0  ACCURACY: -nan
DTLB TIMELY PREFETCHES:          0 LATE PREFETCHES: 0 DROPPED PREFETCHES: 0
DTLB PREFETCHES SAME FILL-ORIGIN LEVEL: 0 DIFFERENT FILL-ORIGIN LEVEL: 0
DTLB AVERAGE MISS LATENCY: 88.665 cycles
DTLB RQ	ACCESS:   12558094	FORWARD:          0	MERGED:    4451539	TO_CACHE:    8106555

STLB TOTAL     ACCESS:     609336  HIT:     602478  MISS:       6858  HIT %:    98.8745  MISS %:    1.12549   MPKI: 0.13716
STLB LOAD TRANSLATION ACCESS:      11792  HIT:       4934  MISS:       6858  HIT %:    41.8419  MISS %:    58.1581   MPKI: 0.13716
STLB TRANSLATION FROM L1D PREFETCHER ACCESS:     597544  HIT:     597544  MISS:          0  HIT %:        100  MISS %:          0   MPKI: 0
STLB PREFETCH  REQUESTED:          0  ISSUED:          0  USEFUL:          0  USELESS:          0
STLB USEFUL LOAD PREFETCHES:          0 PREFETCH ISSUED TO LOWER LEVEL:          0  ACCURACY: -nan
STLB TIMELY PREFETCHES:          0 LATE PREFETCHES: 0 DROPPED PREFETCHES: 0
STLB PREFETCHES SAME FILL-ORIGIN LEVEL: 0 DIFFERENT FILL-ORIGIN LEVEL: 0
STLB AVERAGE MISS LATENCY: 136.744 cycles
STLB RQ	ACCESS:     671750	FORWARD:          0	MERGED:      62414	TO_CACHE:     609336

STLB Hit, L1D data hit: 0
STLB Hit, L2C data hit: 0
STLB Hit, LLC data hit: 0
STLB Hit, LLC data miss: 0
STLB STLB hints to L2: 0
L1D TOTAL     ACCESS:   13193175  HIT:   12483006  MISS:     710169  HIT %:    94.6171  MISS %:    5.38285   MPKI: 14.2034
L1D LOAD      ACCESS:    9029579  HIT:    8962983  MISS:      66596  HIT %:    99.2625  MISS %:   0.737532   MPKI: 1.33192
L1D RFO       ACCESS:    3508823  HIT:    3508036  MISS:        787  HIT %:    99.9776  MISS %:  0.0224292   MPKI: 0.01574
L1D PREFETCH  ACCESS:     654773  HIT:      11987  MISS:     642786  HIT %:    1.83071  MISS %:    98.1693   MPKI: 12.8557
L1D PREFETCH  REQUESTED:    1319916  ISSUED:    1319916  USEFUL:     594755  USELESS:      48030
L1D USEFUL LOAD PREFETCHES:     594755 PREFETCH ISSUED TO LOWER LEVEL:     647020  ACCURACY: 91.9222
L1D TIMELY PREFETCHES:     594755 LATE PREFETCHES: 4037 DROPPED PREFETCHES: 0
L1D PREFETCHES SAME FILL-ORIGIN LEVEL: 647020 DIFFERENT FILL-ORIGIN LEVEL: 0
L1D AVERAGE MISS LATENCY: 158457 cycles
L1D RQ	ACCESS:   17541431	FORWARD:          0	MERGED:    8493574	TO_CACHE:    9047812
L1D WQ	ACCESS:    3510282	FORWARD:         45	MERGED:          0	TO_CACHE:    3510282
L1D PQ	ACCESS:     659958	FORWARD:          0	MERGED:          0	TO_CACHE:     659958

L1D UNIQUE REGIONS ACCESSED: 0
L1D REGIONS CONFLICTS: 0
L1D Cross Page Prefetch Requests: 0
L1D Same Page Prefetch Requests: 791285
L1D ROI Sum of L1D PQ occupancy: 8671391
L1D PREFETCHES PUSHED FROM L2C: 0
L1I TOTAL     ACCESS:    8772738  HIT:    8772738  MISS:          0  HIT %:        100  MISS %:          0   MPKI: 0
L1I LOAD      ACCESS:    8772738  HIT:    8772738  MISS:          0  HIT %:        100  MISS %:          0   MPKI: 0
L1I PREFETCH  REQUESTED:          0  ISSUED:          0  USEFUL:          0  USELESS:          0
L1I USEFUL LOAD PREFETCHES:          0 PREFETCH ISSUED TO LOWER LEVEL:          0  ACCURACY: -nan
L1I TIMELY PREFETCHES:          0 LATE PREFETCHES: 0 DROPPED PREFETCHES: 0
L1I PREFETCHES SAME FILL-ORIGIN LEVEL: 0 DIFFERENT FILL-ORIGIN LEVEL: 0
L1I AVERAGE MISS LATENCY: -nan cycles
L1I RQ	ACCESS:   11406779	FORWARD:          0	MERGED:    2634039	TO_CACHE:    8772740

BTB TOTAL     ACCESS:     877290  HIT:     877281  MISS:          9  HIT %:     99.999  MISS %: 0.00102589   MPKI: 0.00018
BTB BRANCH_DIRECT_JUMP	ACCESS:        220  HIT:        218  MISS:          2
BTB BRANCH_INDIRECT	ACCESS:          0  HIT:          0  MISS:          0
BTB BRANCH_CONDITIONAL	ACCESS:     876630  HIT:     876627  MISS:          3
BTB BRANCH_DIRECT_CALL	ACCESS:        220  HIT:        218  MISS:          2
BTB BRANCH_INDIRECT_CALL	ACCESS:          0  HIT:          0  MISS:          0
BTB BRANCH_RETURN	ACCESS:        220  HIT:        218  MISS:          2
BTB BRANCH_OTHER ACCESS:          0  HIT:          0  MISS:          0

L2C TOTAL     ACCESS:    4009138  HIT:    3568820  MISS:     440318  HIT %:    89.0171  MISS %:    10.9829   MPKI: 8.80636
L2C LOAD      ACCESS:      62558  HIT:      54976  MISS:       7582  HIT %:      87.88  MISS %:      12.12   MPKI: 0.15164
L2C DATA LOAD MPKI: 0.15164
L2C INSTRUCTION LOAD MPKI: 0
L2C RFO       ACCESS:        787  HIT:        655  MISS:        132  HIT %:    83.2274  MISS %:    16.7726   MPKI: 0.00264
L2C PREFETCH  ACCESS:    3499559  HIT:    3067927  MISS:     431632  HIT %:    87.6661  MISS %:    12.3339   MPKI: 8.63264
L2C DATA PREFETCH MPKI: 8.63264
L2C INSTRUCTION PREFETCH MPKI: 0
L2C WRITEBACK ACCESS:     439374  HIT:     439288  MISS:         86  HIT %:    99.9804  MISS %:  0.0195733   MPKI: 0.00172
L2C LOAD TRANSLATION ACCESS:       6860  HIT:       5974  MISS:        886  HIT %:    87.0845  MISS %:    12.9155   MPKI: 0.01772
L2C PREFETCH  REQUESTED:    3323877  ISSUED:    3323842  USEFUL:      19467  USELESS:     412383
L2C USEFUL LOAD PREFETCHES:      19467 PREFETCH ISSUED TO LOWER LEVEL:     431647  ACCURACY: 4.50994
L2C TIMELY PREFETCHES:      19467 LATE PREFETCHES: 15 DROPPED PREFETCHES: 0
L2C PREFETCHES SAME FILL-ORIGIN LEVEL: 383252 DIFFERENT FILL-ORIGIN LEVEL: 0
L2C AVERAGE MISS LATENCY: 192.804 cycles
L2C RQ	ACCESS:      70206	FORWARD:          0	MERGED:          0	TO_CACHE:      70205
L2C WQ	ACCESS:     439374	FORWARD:          1	MERGED:          0	TO_CACHE:     439374
L2C PQ	ACCESS:    3970665	FORWARD:          0	MERGED:     117595	TO_CACHE:    3853070

L2C Instructions Evicting Data 0
L2C Translations Evicting Data 886
L2C Data Evicting Data 438458
L2C Instructions Evicting Instructions 0
L2C Translations Evicting Instructions 0
L2C Data Evicting Instructions 0
L2C Instructions Evicting Translations 0
L2C Translations Evicting Translations 0
L2C Data Evicting Translations 888
L2C Dense regions hint from L2: 0
PSCL5 TOTAL     ACCESS:       6858  HIT:       6858  MISS:          0  HIT %:        100  MISS %:          0   MPKI: 0
PSCL5 LOAD TRANSLATION ACCESS:       6858  HIT:       6858  MISS:          0  HIT %:        100  MISS %:          0   MPKI: 0
PSCL5 PREFETCH  REQUESTED:          0  ISSUED:          0  USEFUL:          0  USELESS:          0
PSCL5 USEFUL LOAD PREFETCHES:          0 PREFETCH ISSUED TO LOWER LEVEL:          0  ACCURACY: -nan
PSCL5 TIMELY PREFETCHES:          0 LATE PREFETCHES: 0 DROPPED PREFETCHES: 0
PSCL5 PREFETCHES SAME FILL-ORIGIN LEVEL: 0 DIFFERENT FILL-ORIGIN LEVEL: 0

PSCL4 TOTAL     ACCESS:       6858  HIT:       6858  MISS:          0  HIT %:        100  MISS %:          0   MPKI: 0
PSCL4 LOAD TRANSLATION ACCESS:       6858  HIT:       6858  MISS:          0  HIT %:        100  MISS %:          0   MPKI: 0
PSCL4 PREFETCH  REQUESTED:          0  ISSUED:          0  USEFUL:          0  USELESS:          0
PSCL4 USEFUL LOAD PREFETCHES:          0 PREFETCH ISSUED TO LOWER LEVEL:          0  ACCURACY: -nan
PSCL4 TIMELY PREFETCHES:          0 LATE PREFETCHES: 0 DROPPED PREFETCHES: 0
PSCL4 PREFETCHES SAME FILL-ORIGIN LEVEL: 0 DIFFERENT FILL-ORIGIN LEVEL: 0

PSCL3 TOTAL     ACCESS:       6858  HIT:       6857  MISS:          1  HIT %:    99.9854  MISS %:  0.0145815   MPKI: 2e-05
PSCL3 LOAD TRANSLATION ACCESS:       6858  HIT:       6857  MISS:          1  HIT %:    99.9854  MISS %:  0.0145815   MPKI: 2e-05
PSCL3 PREFETCH  REQUESTED:          0  ISSUED:          0  USEFUL:          0  USELESS:          0
PSCL3 USEFUL LOAD PREFETCHES:          0 PREFETCH ISSUED TO LOWER LEVEL:          0  ACCURACY: -nan
PSCL3 TIMELY PREFETCHES:          0 LATE PREFETCHES: 0 DROPPED PREFETCHES: 0
PSCL3 PREFETCHES SAME FILL-ORIGIN LEVEL: 0 DIFFERENT FILL-ORIGIN LEVEL: 0

PSCL2 TOTAL     ACCESS:       6858  HIT:       6837  MISS:         21  HIT %:    99.6938  MISS %:   0.306212   MPKI: 0.00042
PSCL2 LOAD TRANSLATION ACCESS:       6858  HIT:       6837  MISS:         21  HIT %:    99.6938  MISS %:   0.306212   MPKI: 0.00042
PSCL2 PREFETCH  REQUESTED:          0  ISSUED:          0  USEFUL:          0  USELESS:          0
PSCL2 USEFUL LOAD PREFETCHES:          0 PREFETCH ISSUED TO LOWER LEVEL:          0  ACCURACY: -nan
PSCL2 TIMELY PREFETCHES:          0 LATE PREFETCHES: 0 DROPPED PREFETCHES: 0
PSCL2 PREFETCHES SAME FILL-ORIGIN LEVEL: 0 DIFFERENT FILL-ORIGIN LEVEL: 0

LLC TOTAL     ACCESS:     878681  HIT:     432439  MISS:     446242  HIT %:    49.2146  MISS %:    50.7854   MPKI: 8.92484
LLC LOAD      ACCESS:       7567  HIT:         84  MISS:       7483  HIT %:    1.11008  MISS %:    98.8899   MPKI: 0.14966
LLC RFO       ACCESS:        132  HIT:        130  MISS:          2  HIT %:    98.4848  MISS %:    1.51515   MPKI: 4e-05
LLC PREFETCH  ACCESS:     431647  HIT:        402  MISS:     431245  HIT %:  0.0931317  MISS %:    99.9069   MPKI: 8.6249
LLC WRITEBACK ACCESS:     438449  HIT:     431818  MISS:       6631  HIT %:    98.4876  MISS %:    1.51238   MPKI: 0.13262
LLC LOAD TRANSLATION ACCESS:        886  HIT:          5  MISS:        881  HIT %:   0.564334  MISS %:    99.4357   MPKI: 0.01762
LLC PREFETCH  REQUESTED:          0  ISSUED:          0  USEFUL:          4  USELESS:     431277
LLC USEFUL LOAD PREFETCHES:          4 PREFETCH ISSUED TO LOWER LEVEL:     431245  ACCURACY: 0.000927547
LLC TIMELY PREFETCHES:          4 LATE PREFETCHES: 0 DROPPED PREFETCHES: 0
LLC PREFETCHES SAME FILL-ORIGIN LEVEL: 0 DIFFERENT FILL-ORIGIN LEVEL: 0
LLC AVERAGE MISS LATENCY: 160.643 cycles
LLC RQ	ACCESS:       8585	FORWARD:          0	MERGED:          0	TO_CACHE:       8585
LLC WQ	ACCESS:     438449	FORWARD:          0	MERGED:          0	TO_CACHE:     438449
LLC PQ	ACCESS:     431647	FORWARD:          0	MERGED:          0	TO_CACHE:     431647

LLC Dense regions hint to LLC: 0

RAW hits: 824
Loads Generated: 17542252
Loads sent to L1D: 17541431
Stores Generated: 3510282
Stores sent to L1D: 3510282
Major fault: 0 Minor fault: 8326
Allocated PAGES: 8326

stream: 
stream:times selected: 1880830
stream:pref_filled: 762913
stream:pref_useful: 705743
stream:pref_late: 4084
stream:misses: 87
stream:misses_by_poll: 0

CS: 
CS:times selected: 1712564
CS:pref_filled: 4580
CS:pref_useful: 3822
CS:pref_late: 0
CS:misses: 89348
CS:misses_by_poll: 22

CPLX: 
CPLX:times selected: 168180
CPLX:pref_filled: 4945
CPLX:pref_useful: 4450
CPLX:pref_late: 0
CPLX:misses: 4711
CPLX:misses_by_poll: 9

NL_L1: 
NL:times selected: 19
NL:pref_filled: 1
NL:pref_useful: 1
NL:pref_late: 0
NL:misses: 1
NL:misses_by_poll: 0

total selections: 3761593
total_filled: 642786
total_useful: 594755
total_late: 4091
total_polluted: 31
total_misses_after_warmup: 84831
conflicts: 502
Degree Incremented Times: 164427
Degree Decremented Times: 0

L1 IP Table Write Accesses: 9045964
L1 IP Table Read Accesses: 9045462
L1 RST Write Accesses: 1502107
L1 RST Read Accesses: 3004214
L1 CSPT Write Accesses: 1502107
L1 CSPT Read Accesses: 1836277
L1 RR Filter Tag Write Accesses: 659958
L1 RR Filter Tag Read Accesses: 338211653
L1 IP Table Tag Write Accesses: 9047814
L1 IP Table Tag Read Accesses: 9047814
L1 RST Tag Write Accesses: 0
L1 RST Tag Read Accesses: 13531024
L1 RR Filter Write Accesses: 0
L1 RR Filter Read Accesses: 12838814
test: 47329
L2 IP Table Read Accesses: 1197040
L2 IP Table Write Accesses: 1135411
L2 IP Table Tag Read Accesses: 598935
L2 IP Table Tag Write Accesses: 598935

DRAM Statistics
 CHANNEL 0
 RQ ROW_BUFFER_HIT:      52613  ROW_BUFFER_MISS:     386998
 DBUS_CONGESTED:        321
 WQ ROW_BUFFER_HIT:     268029  ROW_BUFFER_MISS:     170205  FULL:          0

 AVG_CONGESTED_CYCLE: 6
 All warmup complete: 2
Channel 0 Bank busy for read cycles: 0
Channel 0 Bank busy for write cycles: 0
Channel 0
Rank 0
0banks busy for read cycles: 5657287
0banks busy for write cycles: 8998
1banks busy for read cycles: 20533299
1banks busy for write cycles: 594606
2banks busy for read cycles: 10879379
2banks busy for write cycles: 290932
3banks busy for read cycles: 1111947
3banks busy for write cycles: 252161
4banks busy for read cycles: 454553
4banks busy for write cycles: 286966
5banks busy for read cycles: 197988
5banks busy for write cycles: 321616
6banks busy for read cycles: 170819
6banks busy for write cycles: 367959
7banks busy for read cycles: 1182668
7banks busy for write cycles: 1153239
8banks busy for read cycles: 367915
8banks busy for write cycles: 6069368

CPU 0 Branch Prediction Accuracy: 99.9751% MPKI: 0.00438 Average ROB Occupancy at Mispredict: 48.8767
Branch types
NOT_BRANCH: 49121625 98.2432%
BRANCH_DIRECT_JUMP: 220 0.00044%
BRANCH_INDIRECT: 0 0%
BRANCH_CONDITIONAL: 877399 1.7548%
BRANCH_DIRECT_CALL: 220 0.00044%
BRANCH_INDIRECT_CALL: 0 0%
BRANCH_RETURN: 220 0.00044%
BRANCH_OTHER: 0 0%

@sumon_overall_L1D    594755      4037     48030    642786   1319916   1319916
@Sumon_Early_by_class_L1D    592454      1025      1249         0
@Sumon_Late_by_class_L1D      4030         0         0         0

@Sumon_Early_by_cycle_L1D      6039     21262     30474    359864      4086    173021         9         0         0         0         0         0
@Sumon_Late_by_cycle_L1D        12      4025         0         0         0         0         0         0         0         0         0         0
@Sumon_Early_stream_L1D      6018     20619     30205    359413      3520    172679         0         0         0         0         0         0
@Sumon_Early_CS_L1D         5       512       242       171        55        40         0         0         0         0         0         0
@Sumon_Early_CPLX_L1D         0       123        24       280       511       302         9         0         0         0         0         0
@Sumon_Late_stream_L1D         8      4022         0         0         0         0         0         0         0         0         0         0
@Sumon_Late_CS_L1D         0         0         0         0         0         0         0         0         0         0         0         0
@Sumon_Late_CPLX_L1D         0         0         0         0         0         0         0         0         0         0         0         0
@sumon_overall_L2C     19467        15    412383    431632   3323842   3323877
@Sumon_Early_by_class_L2C     19423        20        20         0
@Sumon_Late_by_class_L2C        13         0         0         0

@Sumon_Early_by_cycle_L2C        21        77      2197       904      3094     12313         0         0         0         0         0       861
@Sumon_Late_by_cycle_L2C         3        12         0         0         0         0         0         0         0         0         0         0
@Sumon_Early_stream_L2C        21        72      2189       903      3091     12299         0         0         0         0         0       848
@Sumon_Early_CS_L2C         0         4         8         0         0         0         0         0         0         0         0         8
@Sumon_Early_CPLX_L2C         0         1         0         1         3        14         0         0         0         0         0         1
@Sumon_Late_stream_L2C         1        12         0         0         0         0         0         0         0         0         0         0
@Sumon_Late_CS_L2C         0         0         0         0         0         0         0         0         0         0         0         0
@Sumon_Late_CPLX_L2C         0         0         0         0         0         0         0         0         0         0         0         0
DRAM PAGES: 1048576
Allocated PAGES: 8326
