
*** ChampSim Multicore Out-of-Order Simulator ***

Warmup Instructions: 10000000
Simulation Instructions: 50000000
Number of CPUs: 1
LLC sets: 2048
LLC ways: 16
Off-chip DRAM Size: 4096 MB Channels: 1 Width: 64-bit Data Rate: 6400 MT/s
CPU 0 runs traces/SPEC2017/654.roms_s-293B.champsimtrace.xz
.xz
CPU 0 Bimodal branch predictor
BTB has LRU replacement policy
ITLB has LRU replacement policy
DTLB has LRU replacement policy
STLB has LRU replacement policy
L1I has LRU replacement policy
IP Table Entries: 256
Initialize DRRIP state for L1D
IP_Table L2 entries: 256
Initialize DRRIP state for L2C
Initialize DRRIP state for LLC
Heartbeat CPU 0 instructions: 10000001 cycles: 3119176 heartbeat IPC: 3.20598 cumulative IPC: 3.20598 (Simulation time: 0 hr 11 min 26 sec) 

Warmup complete CPU 0 instructions: 10000001 cycles: 3119176 (Simulation time: 0 hr 11 min 26 sec) 

Heartbeat CPU 0 instructions: 20000003 cycles: 12941104 heartbeat IPC: 1.01813 cumulative IPC: 1.01813 (Simulation time: 0 hr 20 min 48 sec) 
Heartbeat CPU 0 instructions: 30000000 cycles: 22437432 heartbeat IPC: 1.05304 cumulative IPC: 1.03529 (Simulation time: 0 hr 30 min 8 sec) 
Heartbeat CPU 0 instructions: 40000003 cycles: 32219658 heartbeat IPC: 1.02226 cumulative IPC: 1.03091 (Simulation time: 0 hr 39 min 30 sec) 
Heartbeat CPU 0 instructions: 50000000 cycles: 41705645 heartbeat IPC: 1.05419 cumulative IPC: 1.03663 (Simulation time: 0 hr 48 min 46 sec) 
Heartbeat CPU 0 instructions: 60000002 cycles: 51490130 heartbeat IPC: 1.02203 cumulative IPC: 1.03368 (Simulation time: 0 hr 56 min 41 sec) 
Finished CPU 0 instructions: 50000001 cycles: 48370954 cumulative IPC: 1.03368 (Simulation time: 0 hr 56 min 41 sec) 

ChampSim completed all CPUs

Region of Interest Statistics

CPU 0 cumulative IPC: 1.03368 instructions: 50000001 cycles: 48370954
ITLB TOTAL     ACCESS:    7042536  HIT:    7042536  MISS:          0  HIT %:        100  MISS %:          0   MPKI: 0
ITLB LOAD TRANSLATION ACCESS:    7042536  HIT:    7042536  MISS:          0  HIT %:        100  MISS %:          0   MPKI: 0
ITLB PREFETCH  REQUESTED:          0  ISSUED:          0  USEFUL:          0  USELESS:          0
ITLB USEFUL LOAD PREFETCHES:          0 PREFETCH ISSUED TO LOWER LEVEL:          0  ACCURACY: -nan
ITLB TIMELY PREFETCHES:          0 LATE PREFETCHES: 0 DROPPED PREFETCHES: 0
ITLB PREFETCHES SAME FILL-ORIGIN LEVEL: 0 DIFFERENT FILL-ORIGIN LEVEL: 0
ITLB AVERAGE MISS LATENCY: -nan cycles
ITLB RQ	ACCESS:    8965305	FORWARD:          0	MERGED:    1922769	TO_CACHE:    7042536

DTLB TOTAL     ACCESS:   13478734  HIT:   13464099  MISS:      14635  HIT %:    99.8914  MISS %:   0.108578   MPKI: 0.2927
DTLB LOAD TRANSLATION ACCESS:   13478734  HIT:   13464099  MISS:      14635  HIT %:    99.8914  MISS %:   0.108578   MPKI: 0.2927
DTLB PREFETCH  REQUESTED:          0  ISSUED:          0  USEFUL:          0  USELESS:          0
DTLB USEFUL LOAD PREFETCHES:          0 PREFETCH ISSUED TO LOWER LEVEL:          0  ACCURACY: -nan
DTLB TIMELY PREFETCHES:          0 LATE PREFETCHES: 0 DROPPED PREFETCHES: 0
DTLB PREFETCHES SAME FILL-ORIGIN LEVEL: 0 DIFFERENT FILL-ORIGIN LEVEL: 0
DTLB AVERAGE MISS LATENCY: 149.72 cycles
DTLB RQ	ACCESS:   15513204	FORWARD:          0	MERGED:    2003856	TO_CACHE:   13509348

STLB TOTAL     ACCESS:     423897  HIT:     418857  MISS:       5040  HIT %:     98.811  MISS %:    1.18897   MPKI: 0.1008
STLB LOAD TRANSLATION ACCESS:      14635  HIT:       9595  MISS:       5040  HIT %:     65.562  MISS %:     34.438   MPKI: 0.1008
STLB TRANSLATION FROM L1D PREFETCHER ACCESS:     409262  HIT:     409262  MISS:          0  HIT %:        100  MISS %:          0   MPKI: 0
STLB PREFETCH  REQUESTED:          0  ISSUED:          0  USEFUL:          0  USELESS:          0
STLB USEFUL LOAD PREFETCHES:          0 PREFETCH ISSUED TO LOWER LEVEL:          0  ACCURACY: -nan
STLB TIMELY PREFETCHES:          0 LATE PREFETCHES: 0 DROPPED PREFETCHES: 0
STLB PREFETCHES SAME FILL-ORIGIN LEVEL: 0 DIFFERENT FILL-ORIGIN LEVEL: 0
STLB AVERAGE MISS LATENCY: 406.965 cycles
STLB RQ	ACCESS:     552024	FORWARD:          0	MERGED:     128127	TO_CACHE:     423897

STLB Hit, L1D data hit: 0
STLB Hit, L2C data hit: 0
STLB Hit, LLC data hit: 0
STLB Hit, LLC data miss: 0
STLB STLB hints to L2: 0
L1D TOTAL     ACCESS:   15626486  HIT:   14891217  MISS:     735269  HIT %:    95.2947  MISS %:    4.70527   MPKI: 14.7054
L1D LOAD      ACCESS:   10878788  HIT:   10773987  MISS:     104801  HIT %:    99.0366  MISS %:   0.963352   MPKI: 2.09602
L1D RFO       ACCESS:    4211852  HIT:    3975697  MISS:     236155  HIT %:    94.3931  MISS %:    5.60692   MPKI: 4.7231
L1D PREFETCH  ACCESS:     535846  HIT:     141533  MISS:     394313  HIT %:     26.413  MISS %:     73.587   MPKI: 7.88626
L1D PREFETCH  REQUESTED:    1074794  ISSUED:    1074778  USEFUL:     260199  USELESS:     134113
L1D USEFUL LOAD PREFETCHES:     260199 PREFETCH ISSUED TO LOWER LEVEL:     395077  ACCURACY: 65.8603
L1D TIMELY PREFETCHES:     260199 LATE PREFETCHES: 764 DROPPED PREFETCHES: 0
L1D PREFETCHES SAME FILL-ORIGIN LEVEL: 395077 DIFFERENT FILL-ORIGIN LEVEL: 0
L1D AVERAGE MISS LATENCY: 22598.4 cycles
L1D RQ	ACCESS:   16816074	FORWARD:          0	MERGED:    5783173	TO_CACHE:   10889232
L1D WQ	ACCESS:    4623972	FORWARD:     143669	MERGED:          0	TO_CACHE:    4623972
L1D PQ	ACCESS:     537389	FORWARD:          0	MERGED:          0	TO_CACHE:     537389

L1D UNIQUE REGIONS ACCESSED: 0
L1D REGIONS CONFLICTS: 0
L1D Cross Page Prefetch Requests: 0
L1D Same Page Prefetch Requests: 676585
L1D ROI Sum of L1D PQ occupancy: 7102080
L1D PREFETCHES PUSHED FROM L2C: 0
L1I TOTAL     ACCESS:    8965303  HIT:    8965303  MISS:          0  HIT %:        100  MISS %:          0   MPKI: 0
L1I LOAD      ACCESS:    8965303  HIT:    8965303  MISS:          0  HIT %:        100  MISS %:          0   MPKI: 0
L1I PREFETCH  REQUESTED:          0  ISSUED:          0  USEFUL:          0  USELESS:          0
L1I USEFUL LOAD PREFETCHES:          0 PREFETCH ISSUED TO LOWER LEVEL:          0  ACCURACY: -nan
L1I TIMELY PREFETCHES:          0 LATE PREFETCHES: 0 DROPPED PREFETCHES: 0
L1I PREFETCHES SAME FILL-ORIGIN LEVEL: 0 DIFFERENT FILL-ORIGIN LEVEL: 0
L1I AVERAGE MISS LATENCY: -nan cycles
L1I RQ	ACCESS:   11483722	FORWARD:          0	MERGED:    2518417	TO_CACHE:    8965305

BTB TOTAL     ACCESS:     648184  HIT:     648169  MISS:         15  HIT %:    99.9977  MISS %: 0.00231416   MPKI: 0.0003
BTB BRANCH_DIRECT_JUMP	ACCESS:          8  HIT:          7  MISS:          1
BTB BRANCH_INDIRECT	ACCESS:          0  HIT:          0  MISS:          0
BTB BRANCH_CONDITIONAL	ACCESS:     648176  HIT:     648162  MISS:         14
BTB BRANCH_DIRECT_CALL	ACCESS:          0  HIT:          0  MISS:          0
BTB BRANCH_INDIRECT_CALL	ACCESS:          0  HIT:          0  MISS:          0
BTB BRANCH_RETURN	ACCESS:          0  HIT:          0  MISS:          0
BTB BRANCH_OTHER ACCESS:          0  HIT:          0  MISS:          0

L2C TOTAL     ACCESS:     995894  HIT:     472259  MISS:     523635  HIT %:    47.4206  MISS %:    52.5794   MPKI: 10.4727
L2C LOAD      ACCESS:     104036  HIT:      96151  MISS:       7885  HIT %:    92.4209  MISS %:    7.57911   MPKI: 0.1577
L2C DATA LOAD MPKI: 0.1577
L2C INSTRUCTION LOAD MPKI: 0
L2C RFO       ACCESS:     236030  HIT:       4350  MISS:     231680  HIT %:    1.84299  MISS %:     98.157   MPKI: 4.6336
L2C PREFETCH  ACCESS:     395447  HIT:     120245  MISS:     275202  HIT %:    30.4074  MISS %:    69.5926   MPKI: 5.50404
L2C DATA PREFETCH MPKI: 5.50404
L2C INSTRUCTION PREFETCH MPKI: 0
L2C WRITEBACK ACCESS:     252763  HIT:     248062  MISS:       4701  HIT %:    98.1402  MISS %:    1.85984   MPKI: 0.09402
L2C LOAD TRANSLATION ACCESS:       7618  HIT:       3451  MISS:       4167  HIT %:    45.3006  MISS %:    54.6994   MPKI: 0.08334
L2C PREFETCH  REQUESTED:        455  ISSUED:        455  USEFUL:      68437  USELESS:     205539
L2C USEFUL LOAD PREFETCHES:      68437 PREFETCH ISSUED TO LOWER LEVEL:     275212  ACCURACY: 24.867
L2C TIMELY PREFETCHES:      68437 LATE PREFETCHES: 10 DROPPED PREFETCHES: 0
L2C PREFETCHES SAME FILL-ORIGIN LEVEL: 158 DIFFERENT FILL-ORIGIN LEVEL: 0
L2C AVERAGE MISS LATENCY: 128.137 cycles
L2C RQ	ACCESS:     347810	FORWARD:          0	MERGED:          0	TO_CACHE:     347684
L2C WQ	ACCESS:     252763	FORWARD:        129	MERGED:          0	TO_CACHE:     252763
L2C PQ	ACCESS:     395532	FORWARD:          0	MERGED:         55	TO_CACHE:     395474

L2C Instructions Evicting Data 0
L2C Translations Evicting Data 4122
L2C Data Evicting Data 510717
L2C Instructions Evicting Instructions 0
L2C Translations Evicting Instructions 0
L2C Data Evicting Instructions 0
L2C Instructions Evicting Translations 0
L2C Translations Evicting Translations 45
L2C Data Evicting Translations 4050
L2C Dense regions hint from L2: 0
PSCL5 TOTAL     ACCESS:       5040  HIT:       5040  MISS:          0  HIT %:        100  MISS %:          0   MPKI: 0
PSCL5 LOAD TRANSLATION ACCESS:       5040  HIT:       5040  MISS:          0  HIT %:        100  MISS %:          0   MPKI: 0
PSCL5 PREFETCH  REQUESTED:          0  ISSUED:          0  USEFUL:          0  USELESS:          0
PSCL5 USEFUL LOAD PREFETCHES:          0 PREFETCH ISSUED TO LOWER LEVEL:          0  ACCURACY: -nan
PSCL5 TIMELY PREFETCHES:          0 LATE PREFETCHES: 0 DROPPED PREFETCHES: 0
PSCL5 PREFETCHES SAME FILL-ORIGIN LEVEL: 0 DIFFERENT FILL-ORIGIN LEVEL: 0

PSCL4 TOTAL     ACCESS:       5040  HIT:       5040  MISS:          0  HIT %:        100  MISS %:          0   MPKI: 0
PSCL4 LOAD TRANSLATION ACCESS:       5040  HIT:       5040  MISS:          0  HIT %:        100  MISS %:          0   MPKI: 0
PSCL4 PREFETCH  REQUESTED:          0  ISSUED:          0  USEFUL:          0  USELESS:          0
PSCL4 USEFUL LOAD PREFETCHES:          0 PREFETCH ISSUED TO LOWER LEVEL:          0  ACCURACY: -nan
PSCL4 TIMELY PREFETCHES:          0 LATE PREFETCHES: 0 DROPPED PREFETCHES: 0
PSCL4 PREFETCHES SAME FILL-ORIGIN LEVEL: 0 DIFFERENT FILL-ORIGIN LEVEL: 0

PSCL3 TOTAL     ACCESS:       5031  HIT:       4954  MISS:         77  HIT %:    98.4695  MISS %:    1.53051   MPKI: 0.00154
PSCL3 LOAD TRANSLATION ACCESS:       5031  HIT:       4954  MISS:         77  HIT %:    98.4695  MISS %:    1.53051   MPKI: 0.00154
PSCL3 PREFETCH  REQUESTED:          0  ISSUED:          0  USEFUL:          0  USELESS:          0
PSCL3 USEFUL LOAD PREFETCHES:          0 PREFETCH ISSUED TO LOWER LEVEL:          0  ACCURACY: -nan
PSCL3 TIMELY PREFETCHES:          0 LATE PREFETCHES: 0 DROPPED PREFETCHES: 0
PSCL3 PREFETCHES SAME FILL-ORIGIN LEVEL: 0 DIFFERENT FILL-ORIGIN LEVEL: 0

PSCL2 TOTAL     ACCESS:       5040  HIT:       2517  MISS:       2523  HIT %:    49.9405  MISS %:    50.0595   MPKI: 0.05046
PSCL2 LOAD TRANSLATION ACCESS:       5040  HIT:       2517  MISS:       2523  HIT %:    49.9405  MISS %:    50.0595   MPKI: 0.05046
PSCL2 PREFETCH  REQUESTED:          0  ISSUED:          0  USEFUL:          0  USELESS:          0
PSCL2 USEFUL LOAD PREFETCHES:          0 PREFETCH ISSUED TO LOWER LEVEL:          0  ACCURACY: -nan
PSCL2 TIMELY PREFETCHES:          0 LATE PREFETCHES: 0 DROPPED PREFETCHES: 0
PSCL2 PREFETCHES SAME FILL-ORIGIN LEVEL: 0 DIFFERENT FILL-ORIGIN LEVEL: 0

LLC TOTAL     ACCESS:     771093  HIT:     426768  MISS:     344325  HIT %:    55.3459  MISS %:    44.6541   MPKI: 6.8865
LLC LOAD      ACCESS:       7875  HIT:       3260  MISS:       4615  HIT %:    41.3968  MISS %:    58.6032   MPKI: 0.0923
LLC RFO       ACCESS:     231680  HIT:      91462  MISS:     140218  HIT %:    39.4777  MISS %:    60.5223   MPKI: 2.80436
LLC PREFETCH  ACCESS:     275212  HIT:     143657  MISS:     131555  HIT %:    52.1987  MISS %:    47.8013   MPKI: 2.6311
LLC WRITEBACK ACCESS:     252159  HIT:     188176  MISS:      63983  HIT %:    74.6259  MISS %:    25.3741   MPKI: 1.27966
LLC LOAD TRANSLATION ACCESS:       4167  HIT:        213  MISS:       3954  HIT %:    5.11159  MISS %:    94.8884   MPKI: 0.07908
LLC PREFETCH  REQUESTED:          0  ISSUED:          0  USEFUL:       3815  USELESS:     133929
LLC USEFUL LOAD PREFETCHES:       3815 PREFETCH ISSUED TO LOWER LEVEL:     131555  ACCURACY: 2.89993
LLC TIMELY PREFETCHES:       3815 LATE PREFETCHES: 0 DROPPED PREFETCHES: 0
LLC PREFETCHES SAME FILL-ORIGIN LEVEL: 0 DIFFERENT FILL-ORIGIN LEVEL: 0
LLC AVERAGE MISS LATENCY: 148.926 cycles
LLC RQ	ACCESS:     243722	FORWARD:          0	MERGED:          0	TO_CACHE:     243722
LLC WQ	ACCESS:     252159	FORWARD:          0	MERGED:          0	TO_CACHE:     252159
LLC PQ	ACCESS:     275212	FORWARD:          0	MERGED:          0	TO_CACHE:     275212

LLC Dense regions hint to LLC: 0

RAW hits: 565802
Loads Generated: 17381878
Loads sent to L1D: 16816074
Stores Generated: 4623969
Stores sent to L1D: 4623972
Major fault: 0 Minor fault: 6614
Allocated PAGES: 6614

stream: 
stream:times selected: 511107
stream:pref_filled: 97013
stream:pref_useful: 32910
stream:pref_late: 229
stream:misses: 14
stream:misses_by_poll: 0

CS: 
CS:times selected: 501538
CS:pref_filled: 370838
CS:pref_useful: 264222
CS:pref_late: 472
CS:misses: 126608
CS:misses_by_poll: 3157

CPLX: 
CPLX:times selected: 9501
CPLX:pref_filled: 2317
CPLX:pref_useful: 1521
CPLX:pref_late: 4
CPLX:misses: 441
CPLX:misses_by_poll: 1

NL_L1: 
NL:times selected: 4
NL:pref_filled: 3
NL:pref_useful: 3
NL:pref_late: 0
NL:misses: 0
NL:misses_by_poll: 0

total selections: 1022150
total_filled: 394313
total_useful: 260199
total_late: 769
total_polluted: 3158
total_misses_after_warmup: 115246
conflicts: 34556
Degree Incremented Times: 0
Degree Decremented Times: 46882

L1 IP Table Write Accesses: 10222207
L1 IP Table Read Accesses: 10187651
L1 RST Write Accesses: 448268
L1 RST Read Accesses: 896536
L1 CSPT Write Accesses: 448268
L1 CSPT Read Accesses: 474286
L1 RR Filter Tag Write Accesses: 537405
L1 RR Filter Tag Read Accesses: 44099937
L1 IP Table Tag Write Accesses: 10889233
L1 IP Table Tag Read Accesses: 10889233
L1 RST Tag Write Accesses: 0
L1 RST Tag Read Accesses: 3857414
L1 RR Filter Write Accesses: 0
L1 RR Filter Read Accesses: 1734785
test: 11109
L2 IP Table Read Accesses: 997637
L2 IP Table Write Accesses: 894257
L2 IP Table Tag Read Accesses: 499050
L2 IP Table Tag Write Accesses: 499050

DRAM Statistics
 CHANNEL 0
 RQ ROW_BUFFER_HIT:      60368  ROW_BUFFER_MISS:     219886
 DBUS_CONGESTED:        250
 WQ ROW_BUFFER_HIT:      24017  ROW_BUFFER_MISS:     115035  FULL:          0

 AVG_CONGESTED_CYCLE: 4
 All warmup complete: 2
Channel 0 Bank busy for read cycles: 0
Channel 0 Bank busy for write cycles: 0
Channel 0
Rank 0
0banks busy for read cycles: 14954483
0banks busy for write cycles: 43077
1banks busy for read cycles: 12326009
1banks busy for write cycles: 5571808
2banks busy for read cycles: 7948952
2banks busy for write cycles: 2149334
3banks busy for read cycles: 1221138
3banks busy for write cycles: 847567
4banks busy for read cycles: 593664
4banks busy for write cycles: 395401
5banks busy for read cycles: 239267
5banks busy for write cycles: 198503
6banks busy for read cycles: 59139
6banks busy for write cycles: 149974
7banks busy for read cycles: 30294
7banks busy for write cycles: 239975
8banks busy for read cycles: 19655
8banks busy for write cycles: 1382715

CPU 0 Branch Prediction Accuracy: 99.7993% MPKI: 0.02604 Average ROB Occupancy at Mispredict: 52.0676
Branch types
NOT_BRANCH: 49351064 98.7021%
BRANCH_DIRECT_JUMP: 8 1.6e-05%
BRANCH_INDIRECT: 0 0%
BRANCH_CONDITIONAL: 648608 1.29722%
BRANCH_DIRECT_CALL: 0 0%
BRANCH_INDIRECT_CALL: 0 0%
BRANCH_RETURN: 0 0%
BRANCH_OTHER: 0 0%

@sumon_overall_L1D    260199       764    134113    394313   1074778   1074794
@Sumon_Early_by_class_L1D     12759    245946      1465         0
@Sumon_Late_by_class_L1D       224       472         4         0

@Sumon_Early_by_cycle_L1D      3554     17857     65377     12567     24409     81365      2245     52817         8         0         0         0
@Sumon_Late_by_cycle_L1D       508       182        70         4         0         0         0         0         0         0         0         0
@Sumon_Early_stream_L1D      1486      1099      7975       502       368      1326         1         0         2         0         0         0
@Sumon_Early_CS_L1D      2020     16642     57271     11946     23972     79977      2054     52063         1         0         0         0
@Sumon_Early_CPLX_L1D        40       102       126       118        68        62       190       754         5         0         0         0
@Sumon_Late_stream_L1D       146        47        27         4         0         0         0         0         0         0         0         0
@Sumon_Late_CS_L1D       297       133        42         0         0         0         0         0         0         0         0         0
@Sumon_Late_CPLX_L1D         3         1         0         0         0         0         0         0         0         0         0         0
@sumon_overall_L2C     68437        10    205539    275202       455       455
@Sumon_Early_by_class_L2C      1824     66154       385         0
@Sumon_Late_by_class_L2C         0         0         0         0

@Sumon_Early_by_cycle_L2C        27       338      2301      1468     14996     28872       275     13959        25      6075         0       101
@Sumon_Late_by_cycle_L2C         3         1         5         1         0         0         0         0         0         0         0         0
@Sumon_Early_stream_L2C        19       138      1004       163        49       206         0         0         0       241         0         4
@Sumon_Early_CS_L2C         5       195      1275      1280     14903     28618       235     13710        21      5821         0        91
@Sumon_Early_CPLX_L2C         0         0         6        19        37        32        40       244         1         5         0         1
@Sumon_Late_stream_L2C         0         0         0         0         0         0         0         0         0         0         0         0
@Sumon_Late_CS_L2C         0         0         0         0         0         0         0         0         0         0         0         0
@Sumon_Late_CPLX_L2C         0         0         0         0         0         0         0         0         0         0         0         0
DRAM PAGES: 1048576
Allocated PAGES: 6614
