
*** ChampSim Multicore Out-of-Order Simulator ***

Warmup Instructions: 10000000
Simulation Instructions: 50000000
Number of CPUs: 1
LLC sets: 2048
LLC ways: 16
Off-chip DRAM Size: 4096 MB Channels: 1 Width: 64-bit Data Rate: 6400 MT/s
CPU 0 runs traces/clientserver/client_008.champsimtrace.xz
.xz
CPU 0 Bimodal branch predictor
BTB has LRU replacement policy
ITLB has LRU replacement policy
DTLB has LRU replacement policy
STLB has LRU replacement policy
L1I has LRU replacement policy
IP Table Entries: 256
L1D has LRU replacement policy
IP_Table L2 entries: 256
L2C has LRU replacement policy
Initialize DRRIP state for LLC
Heartbeat CPU 0 instructions: 10000001 cycles: 3017500 heartbeat IPC: 3.314 cumulative IPC: 3.314 (Simulation time: 0 hr 20 min 25 sec) 

Warmup complete CPU 0 instructions: 10000001 cycles: 3017500 (Simulation time: 0 hr 20 min 25 sec) 

Heartbeat CPU 0 instructions: 20000001 cycles: 23674932 heartbeat IPC: 0.484087 cumulative IPC: 0.484087 (Simulation time: 0 hr 38 min 36 sec) 
Heartbeat CPU 0 instructions: 30000003 cycles: 44123938 heartbeat IPC: 0.489021 cumulative IPC: 0.486542 (Simulation time: 0 hr 56 min 40 sec) 
Heartbeat CPU 0 instructions: 40000001 cycles: 64060122 heartbeat IPC: 0.5016 cumulative IPC: 0.49146 (Simulation time: 1 hr 14 min 42 sec) 
Heartbeat CPU 0 instructions: 50000003 cycles: 84576877 heartbeat IPC: 0.487407 cumulative IPC: 0.49044 (Simulation time: 1 hr 32 min 38 sec) 
Heartbeat CPU 0 instructions: 60000003 cycles: 104034842 heartbeat IPC: 0.513928 cumulative IPC: 0.494965 (Simulation time: 1 hr 43 min 31 sec) 
Finished CPU 0 instructions: 50000002 cycles: 101017342 cumulative IPC: 0.494965 (Simulation time: 1 hr 43 min 31 sec) 

ChampSim completed all CPUs

Region of Interest Statistics

CPU 0 cumulative IPC: 0.494965 instructions: 50000002 cycles: 101017342
ITLB TOTAL     ACCESS:    8165518  HIT:    7843669  MISS:     321849  HIT %:    96.0584  MISS %:    3.94156   MPKI: 6.43698
ITLB LOAD TRANSLATION ACCESS:    8165518  HIT:    7843669  MISS:     321849  HIT %:    96.0584  MISS %:    3.94156   MPKI: 6.43698
ITLB PREFETCH  REQUESTED:          0  ISSUED:          0  USEFUL:          0  USELESS:          0
ITLB USEFUL LOAD PREFETCHES:          0 PREFETCH ISSUED TO LOWER LEVEL:          0  ACCURACY: -nan
ITLB TIMELY PREFETCHES:          0 LATE PREFETCHES: 0 DROPPED PREFETCHES: 0
ITLB PREFETCHES SAME FILL-ORIGIN LEVEL: 0 DIFFERENT FILL-ORIGIN LEVEL: 0
ITLB AVERAGE MISS LATENCY: 9.63085 cycles
ITLB RQ	ACCESS:    9597352	FORWARD:          0	MERGED:    1337571	TO_CACHE:    8259781

DTLB TOTAL     ACCESS:   12142981  HIT:   11103664  MISS:    1039317  HIT %:     91.441  MISS %:    8.55899   MPKI: 20.7863
DTLB LOAD TRANSLATION ACCESS:   12142981  HIT:   11103664  MISS:    1039317  HIT %:     91.441  MISS %:    8.55899   MPKI: 20.7863
DTLB PREFETCH  REQUESTED:          0  ISSUED:          0  USEFUL:          0  USELESS:          0
DTLB USEFUL LOAD PREFETCHES:          0 PREFETCH ISSUED TO LOWER LEVEL:          0  ACCURACY: -nan
DTLB TIMELY PREFETCHES:          0 LATE PREFETCHES: 0 DROPPED PREFETCHES: 0
DTLB PREFETCHES SAME FILL-ORIGIN LEVEL: 0 DIFFERENT FILL-ORIGIN LEVEL: 0
DTLB AVERAGE MISS LATENCY: 9.58715 cycles
DTLB RQ	ACCESS:   13794201	FORWARD:          0	MERGED:    1618073	TO_CACHE:   12176128

STLB TOTAL     ACCESS:    2014576  HIT:    2003914  MISS:      10662  HIT %:    99.4708  MISS %:   0.529243   MPKI: 0.21324
STLB LOAD TRANSLATION ACCESS:    1361165  HIT:    1350503  MISS:      10662  HIT %:    99.2167  MISS %:     0.7833   MPKI: 0.21324
STLB TRANSLATION FROM L1D PREFETCHER ACCESS:     653411  HIT:     653411  MISS:          0  HIT %:        100  MISS %:          0   MPKI: 0
STLB PREFETCH  REQUESTED:          0  ISSUED:          0  USEFUL:          0  USELESS:          0
STLB USEFUL LOAD PREFETCHES:          0 PREFETCH ISSUED TO LOWER LEVEL:          0  ACCURACY: -nan
STLB TIMELY PREFETCHES:          0 LATE PREFETCHES: 0 DROPPED PREFETCHES: 0
STLB PREFETCHES SAME FILL-ORIGIN LEVEL: 0 DIFFERENT FILL-ORIGIN LEVEL: 0
STLB AVERAGE MISS LATENCY: 73.2778 cycles
STLB RQ	ACCESS:    2164569	FORWARD:          0	MERGED:     149993	TO_CACHE:    2014576

STLB Hit, L1D data hit: 0
STLB Hit, L2C data hit: 0
STLB Hit, LLC data hit: 0
STLB Hit, LLC data miss: 0
STLB STLB hints to L2: 0
L1D TOTAL     ACCESS:   14348148  HIT:   12882277  MISS:    1465871  HIT %:    89.7836  MISS %:    10.2164   MPKI: 29.3174
L1D LOAD      ACCESS:   10592426  HIT:    9500252  MISS:    1092174  HIT %:    89.6891  MISS %:    10.3109   MPKI: 21.8435
L1D RFO       ACCESS:    2974364  HIT:    2914765  MISS:      59599  HIT %:    97.9962  MISS %:    2.00376   MPKI: 1.19198
L1D PREFETCH  ACCESS:     781358  HIT:     467260  MISS:     314098  HIT %:     59.801  MISS %:     40.199   MPKI: 6.28196
L1D PREFETCH  REQUESTED:    1606838  ISSUED:    1606838  USEFUL:      41752  USELESS:     272372
L1D USEFUL LOAD PREFETCHES:      41752 PREFETCH ISSUED TO LOWER LEVEL:     319150  ACCURACY: 13.0822
L1D TIMELY PREFETCHES:      41752 LATE PREFETCHES: 4974 DROPPED PREFETCHES: 0
L1D PREFETCHES SAME FILL-ORIGIN LEVEL: 319150 DIFFERENT FILL-ORIGIN LEVEL: 0
L1D AVERAGE MISS LATENCY: 224220 cycles
L1D RQ	ACCESS:   15220649	FORWARD:          0	MERGED:    4417317	TO_CACHE:   10669485
L1D WQ	ACCESS:    3175977	FORWARD:     133877	MERGED:      51261	TO_CACHE:    3124716
L1D PQ	ACCESS:     803434	FORWARD:          0	MERGED:          0	TO_CACHE:     803404

L1D UNIQUE REGIONS ACCESSED: 0
L1D REGIONS CONFLICTS: 0
L1D Cross Page Prefetch Requests: 0
L1D Same Page Prefetch Requests: 962716
L1D ROI Sum of L1D PQ occupancy: 10413379
L1D PREFETCHES PUSHED FROM L2C: 0
L1I TOTAL     ACCESS:    9212021  HIT:    7672705  MISS:    1539316  HIT %:    83.2901  MISS %:    16.7099   MPKI: 30.7863
L1I LOAD      ACCESS:    9212021  HIT:    7672705  MISS:    1539316  HIT %:    83.2901  MISS %:    16.7099   MPKI: 30.7863
L1I PREFETCH  REQUESTED:          0  ISSUED:          0  USEFUL:          0  USELESS:          0
L1I USEFUL LOAD PREFETCHES:          0 PREFETCH ISSUED TO LOWER LEVEL:          0  ACCURACY: -nan
L1I TIMELY PREFETCHES:          0 LATE PREFETCHES: 0 DROPPED PREFETCHES: 0
L1I PREFETCHES SAME FILL-ORIGIN LEVEL: 0 DIFFERENT FILL-ORIGIN LEVEL: 0
L1I AVERAGE MISS LATENCY: 18.4842 cycles
L1I RQ	ACCESS:   14242979	FORWARD:          0	MERGED:    4645627	TO_CACHE:    9597352

BTB TOTAL     ACCESS:    6931541  HIT:    5917368  MISS:    1014173  HIT %:    85.3687  MISS %:    14.6313   MPKI: 20.2835
BTB BRANCH_DIRECT_JUMP	ACCESS:     559530  HIT:     536330  MISS:      23200
BTB BRANCH_INDIRECT	ACCESS:     465173  HIT:     328917  MISS:     136256
BTB BRANCH_CONDITIONAL	ACCESS:    3922405  HIT:    3818065  MISS:     104340
BTB BRANCH_DIRECT_CALL	ACCESS:     312096  HIT:     299015  MISS:      13081
BTB BRANCH_INDIRECT_CALL	ACCESS:     680109  HIT:     575755  MISS:     104354
BTB BRANCH_RETURN	ACCESS:     992228  HIT:     359286  MISS:     632942
BTB BRANCH_OTHER ACCESS:          0  HIT:          0  MISS:          0

L2C TOTAL     ACCESS:    3958030  HIT:    3477806  MISS:     480224  HIT %:    87.8671  MISS %:    12.1329   MPKI: 9.60448
L2C LOAD      ACCESS:    2626510  HIT:    2361713  MISS:     264797  HIT %:    89.9183  MISS %:    10.0817   MPKI: 5.29594
L2C DATA LOAD MPKI: 2.13504
L2C INSTRUCTION LOAD MPKI: 3.1609
L2C RFO       ACCESS:      59513  HIT:      28027  MISS:      31486  HIT %:    47.0939  MISS %:    52.9061   MPKI: 0.62972
L2C PREFETCH  ACCESS:    1169948  HIT:     992205  MISS:     177743  HIT %:    84.8076  MISS %:    15.1924   MPKI: 3.55486
L2C DATA PREFETCH MPKI: 3.55486
L2C INSTRUCTION PREFETCH MPKI: 0
L2C WRITEBACK ACCESS:      90772  HIT:      89868  MISS:        904  HIT %:    99.0041  MISS %:   0.995902   MPKI: 0.01808
L2C LOAD TRANSLATION ACCESS:      11287  HIT:       5993  MISS:       5294  HIT %:    53.0965  MISS %:    46.9035   MPKI: 0.10588
L2C PREFETCH  REQUESTED:     869327  ISSUED:     869327  USEFUL:      42852  USELESS:     134358
L2C USEFUL LOAD PREFETCHES:      42852 PREFETCH ISSUED TO LOWER LEVEL:     182028  ACCURACY: 23.5414
L2C TIMELY PREFETCHES:      42852 LATE PREFETCHES: 4285 DROPPED PREFETCHES: 0
L2C PREFETCHES SAME FILL-ORIGIN LEVEL: 100932 DIFFERENT FILL-ORIGIN LEVEL: 0
L2C AVERAGE MISS LATENCY: 61.0422 cycles
L2C RQ	ACCESS:    2697324	FORWARD:          0	MERGED:          0	TO_CACHE:    2697310
L2C WQ	ACCESS:      90772	FORWARD:         18	MERGED:          0	TO_CACHE:      90772
L2C PQ	ACCESS:    1188477	FORWARD:          0	MERGED:       7554	TO_CACHE:    1180919

L2C Instructions Evicting Data 103915
L2C Translations Evicting Data 3323
L2C Data Evicting Data 208482
L2C Instructions Evicting Instructions 52325
L2C Translations Evicting Instructions 1893
L2C Data Evicting Instructions 104212
L2C Instructions Evicting Translations 1805
L2C Translations Evicting Translations 78
L2C Data Evicting Translations 3287
L2C Dense regions hint from L2: 0
PSCL5 TOTAL     ACCESS:      10662  HIT:      10662  MISS:          0  HIT %:        100  MISS %:          0   MPKI: 0
PSCL5 LOAD TRANSLATION ACCESS:      10662  HIT:      10662  MISS:          0  HIT %:        100  MISS %:          0   MPKI: 0
PSCL5 PREFETCH  REQUESTED:          0  ISSUED:          0  USEFUL:          0  USELESS:          0
PSCL5 USEFUL LOAD PREFETCHES:          0 PREFETCH ISSUED TO LOWER LEVEL:          0  ACCURACY: -nan
PSCL5 TIMELY PREFETCHES:          0 LATE PREFETCHES: 0 DROPPED PREFETCHES: 0
PSCL5 PREFETCHES SAME FILL-ORIGIN LEVEL: 0 DIFFERENT FILL-ORIGIN LEVEL: 0

PSCL4 TOTAL     ACCESS:      10662  HIT:      10662  MISS:          0  HIT %:        100  MISS %:          0   MPKI: 0
PSCL4 LOAD TRANSLATION ACCESS:      10662  HIT:      10662  MISS:          0  HIT %:        100  MISS %:          0   MPKI: 0
PSCL4 PREFETCH  REQUESTED:          0  ISSUED:          0  USEFUL:          0  USELESS:          0
PSCL4 USEFUL LOAD PREFETCHES:          0 PREFETCH ISSUED TO LOWER LEVEL:          0  ACCURACY: -nan
PSCL4 TIMELY PREFETCHES:          0 LATE PREFETCHES: 0 DROPPED PREFETCHES: 0
PSCL4 PREFETCHES SAME FILL-ORIGIN LEVEL: 0 DIFFERENT FILL-ORIGIN LEVEL: 0

PSCL3 TOTAL     ACCESS:      10656  HIT:      10644  MISS:         12  HIT %:    99.8874  MISS %:   0.112613   MPKI: 0.00024
PSCL3 LOAD TRANSLATION ACCESS:      10656  HIT:      10644  MISS:         12  HIT %:    99.8874  MISS %:   0.112613   MPKI: 0.00024
PSCL3 PREFETCH  REQUESTED:          0  ISSUED:          0  USEFUL:          0  USELESS:          0
PSCL3 USEFUL LOAD PREFETCHES:          0 PREFETCH ISSUED TO LOWER LEVEL:          0  ACCURACY: -nan
PSCL3 TIMELY PREFETCHES:          0 LATE PREFETCHES: 0 DROPPED PREFETCHES: 0
PSCL3 PREFETCHES SAME FILL-ORIGIN LEVEL: 0 DIFFERENT FILL-ORIGIN LEVEL: 0

PSCL2 TOTAL     ACCESS:      10662  HIT:      10040  MISS:        622  HIT %:    94.1662  MISS %:     5.8338   MPKI: 0.01244
PSCL2 LOAD TRANSLATION ACCESS:      10662  HIT:      10040  MISS:        622  HIT %:    94.1662  MISS %:     5.8338   MPKI: 0.01244
PSCL2 PREFETCH  REQUESTED:          0  ISSUED:          0  USEFUL:          0  USELESS:          0
PSCL2 USEFUL LOAD PREFETCHES:          0 PREFETCH ISSUED TO LOWER LEVEL:          0  ACCURACY: -nan
PSCL2 TIMELY PREFETCHES:          0 LATE PREFETCHES: 0 DROPPED PREFETCHES: 0
PSCL2 PREFETCHES SAME FILL-ORIGIN LEVEL: 0 DIFFERENT FILL-ORIGIN LEVEL: 0

LLC TOTAL     ACCESS:     522239  HIT:     419367  MISS:     102872  HIT %:    80.3017  MISS %:    19.6983   MPKI: 2.05744
LLC LOAD      ACCESS:     260530  HIT:     229481  MISS:      31049  HIT %:    88.0824  MISS %:    11.9176   MPKI: 0.62098
LLC RFO       ACCESS:      31468  HIT:       3894  MISS:      27574  HIT %:    12.3745  MISS %:    87.6255   MPKI: 0.55148
LLC PREFETCH  ACCESS:     182028  HIT:     139219  MISS:      42809  HIT %:    76.4822  MISS %:    23.5178   MPKI: 0.85618
LLC WRITEBACK ACCESS:      42919  HIT:      42440  MISS:        479  HIT %:    98.8839  MISS %:    1.11606   MPKI: 0.00958
LLC LOAD TRANSLATION ACCESS:       5294  HIT:       4333  MISS:        961  HIT %:    81.8474  MISS %:    18.1526   MPKI: 0.01922
LLC PREFETCH  REQUESTED:          0  ISSUED:          0  USEFUL:       2386  USELESS:      39034
LLC USEFUL LOAD PREFETCHES:       2386 PREFETCH ISSUED TO LOWER LEVEL:      42809  ACCURACY: 5.57359
LLC TIMELY PREFETCHES:       2386 LATE PREFETCHES: 0 DROPPED PREFETCHES: 0
LLC PREFETCHES SAME FILL-ORIGIN LEVEL: 0 DIFFERENT FILL-ORIGIN LEVEL: 0
LLC AVERAGE MISS LATENCY: 145.264 cycles
LLC RQ	ACCESS:     297292	FORWARD:          0	MERGED:          0	TO_CACHE:     297292
LLC WQ	ACCESS:      42919	FORWARD:          0	MERGED:          0	TO_CACHE:      42919
LLC PQ	ACCESS:     182028	FORWARD:          0	MERGED:          0	TO_CACHE:     182028

LLC Dense regions hint to LLC: 0

RAW hits: 713460
Loads Generated: 15934110
Loads sent to L1D: 15220649
Stores Generated: 3175979
Stores sent to L1D: 3175977
Major fault: 0 Minor fault: 3885
Allocated PAGES: 3885

stream: 
stream:times selected: 1365884
stream:pref_filled: 238111
stream:pref_useful: 26037
stream:pref_late: 1811
stream:misses: 56065
stream:misses_by_poll: 0

CS: 
CS:times selected: 40058
CS:pref_filled: 22998
CS:pref_useful: 14785
CS:pref_late: 2453
CS:misses: 9072
CS:misses_by_poll: 30

CPLX: 
CPLX:times selected: 1304322
CPLX:pref_filled: 102854
CPLX:pref_useful: 6582
CPLX:pref_late: 91
CPLX:misses: 120852
CPLX:misses_by_poll: 14

NL_L1: 
NL:times selected: 4504
NL:pref_filled: 1982
NL:pref_useful: 1238
NL:pref_late: 30
NL:misses: 722
NL:misses_by_poll: 0

total selections: 2714768
total_filled: 314098
total_useful: 41752
total_late: 5291
total_polluted: 44
total_misses_after_warmup: 1169234
conflicts: 3366847
Degree Incremented Times: 0
Degree Decremented Times: 194653

L1 IP Table Write Accesses: 6648747
L1 IP Table Read Accesses: 3281900
L1 RST Write Accesses: 1137226
L1 RST Read Accesses: 2274452
L1 CSPT Write Accesses: 1137226
L1 CSPT Read Accesses: 2220798
L1 RR Filter Tag Write Accesses: 803434
L1 RR Filter Tag Read Accesses: 39679442
L1 IP Table Tag Write Accesses: 10669486
L1 IP Table Tag Read Accesses: 10669486
L1 RST Tag Write Accesses: 0
L1 RST Tag Read Accesses: 11194729
L1 RR Filter Write Accesses: 0
L1 RR Filter Read Accesses: 1504393
test: 935519
L2 IP Table Read Accesses: 1915546
L2 IP Table Write Accesses: 2460942
L2 IP Table Tag Read Accesses: 1397538
L2 IP Table Tag Write Accesses: 1397538

DRAM Statistics
 CHANNEL 0
 RQ ROW_BUFFER_HIT:      27976  ROW_BUFFER_MISS:      74417
 DBUS_CONGESTED:        106
 WQ ROW_BUFFER_HIT:       5859  ROW_BUFFER_MISS:      28758  FULL:          0

 AVG_CONGESTED_CYCLE: 4
 All warmup complete: 2
Channel 0 Bank busy for read cycles: 0
Channel 0 Bank busy for write cycles: 0
Channel 0
Rank 0
0banks busy for read cycles: 87769605
0banks busy for write cycles: 20755
1banks busy for read cycles: 6519962
1banks busy for write cycles: 2945859
2banks busy for read cycles: 1823938
2banks busy for write cycles: 736272
3banks busy for read cycles: 489899
3banks busy for write cycles: 221644
4banks busy for read cycles: 133408
4banks busy for write cycles: 100222
5banks busy for read cycles: 38712
5banks busy for write cycles: 51886
6banks busy for read cycles: 16109
6banks busy for write cycles: 31217
7banks busy for read cycles: 9773
7banks busy for write cycles: 34430
8banks busy for read cycles: 4110
8banks busy for write cycles: 69542

CPU 0 Branch Prediction Accuracy: 95.1378% MPKI: 11.6522 Average ROB Occupancy at Mispredict: 32.4736
Branch types
NOT_BRANCH: 38017068 76.0341%
BRANCH_DIRECT_JUMP: 559530 1.11906%
BRANCH_INDIRECT: 465173 0.930346%
BRANCH_CONDITIONAL: 8973461 17.9469%
BRANCH_DIRECT_CALL: 312096 0.624192%
BRANCH_INDIRECT_CALL: 680109 1.36022%
BRANCH_RETURN: 992228 1.98446%
BRANCH_OTHER: 0 0%

@sumon_overall_L1D     41752      4974    272372    314098   1606838   1606838
@Sumon_Early_by_class_L1D     21037     13061      5502        25
@Sumon_Late_by_class_L1D      1580      2406        84        25

@Sumon_Early_by_cycle_L1D      7441      3675      2905      2683      2509      5944      5100      2587      3839      3282      1273       514
@Sumon_Late_by_cycle_L1D      3775      1139        60         0         0         0         0         0         0         0         0         0
@Sumon_Early_stream_L1D      4255      2379      1475      1383      1085      2320      1103      1240      2019      2389       991       398
@Sumon_Early_CS_L1D      2081       613       819       944       926      2682      3450       624       801        70        34        17
@Sumon_Early_CPLX_L1D       736       479       443       309       213       472       317       608       843       758       229        95
@Sumon_Late_stream_L1D      1295       283         2         0         0         0         0         0         0         0         0         0
@Sumon_Late_CS_L1D      1528       821        57         0         0         0         0         0         0         0         0         0
@Sumon_Late_CPLX_L1D        73        11         0         0         0         0         0         0         0         0         0         0
@sumon_overall_L2C     42852      4285    134358    177743    869327    869327
@Sumon_Early_by_class_L2C      2096       132      1162         0
@Sumon_Late_by_class_L2C         0         0         0         0

@Sumon_Early_by_cycle_L2C      8403      6751      9246      2497       746      2026      1906      1639      1008      1158      1192      6280
@Sumon_Late_by_cycle_L2C      3947       333         5         0         0         0         0         0         0         0         0         0
@Sumon_Early_stream_L2C         0         0         0         0         0         0         0         1         4       117       295      1679
@Sumon_Early_CS_L2C         0         0         0         0         0         0         0         0         0         0        11       121
@Sumon_Early_CPLX_L2C         0         0         0         0         0         0         0         0         4        99       175       884
@Sumon_Late_stream_L2C         0         0         0         0         0         0         0         0         0         0         0         0
@Sumon_Late_CS_L2C         0         0         0         0         0         0         0         0         0         0         0         0
@Sumon_Late_CPLX_L2C         0         0         0         0         0         0         0         0         0         0         0         0
DRAM PAGES: 1048576
Allocated PAGES: 3885
