
*** ChampSim Multicore Out-of-Order Simulator ***

Warmup Instructions: 10000000
Simulation Instructions: 50000000
Number of CPUs: 1
LLC sets: 2048
LLC ways: 16
Off-chip DRAM Size: 4096 MB Channels: 1 Width: 64-bit Data Rate: 6400 MT/s
CPU 0 runs traces/clientserver/client_004.champsimtrace.xz
.xz
CPU 0 Bimodal branch predictor
BTB has LRU replacement policy
ITLB has LRU replacement policy
DTLB has LRU replacement policy
STLB has LRU replacement policy
L1I has LRU replacement policy
IP Table Entries: 256
L1D has LRU replacement policy
IP_Table L2 entries: 256
L2C has LRU replacement policy
Initialize DRRIP state for LLC
Heartbeat CPU 0 instructions: 10000000 cycles: 3024469 heartbeat IPC: 3.30637 cumulative IPC: 3.30637 (Simulation time: 0 hr 19 min 4 sec) 

Warmup complete CPU 0 instructions: 10000004 cycles: 3024470 (Simulation time: 0 hr 19 min 4 sec) 

Heartbeat CPU 0 instructions: 20000003 cycles: 20514032 heartbeat IPC: 0.57177 cumulative IPC: 0.57177 (Simulation time: 0 hr 35 min 4 sec) 
Heartbeat CPU 0 instructions: 30000002 cycles: 40955276 heartbeat IPC: 0.489207 cumulative IPC: 0.527276 (Simulation time: 0 hr 52 min 7 sec) 
Heartbeat CPU 0 instructions: 40000000 cycles: 61352996 heartbeat IPC: 0.490251 cumulative IPC: 0.514328 (Simulation time: 1 hr 9 min 5 sec) 
Heartbeat CPU 0 instructions: 50000001 cycles: 79019675 heartbeat IPC: 0.566037 cumulative IPC: 0.526349 (Simulation time: 1 hr 26 min 13 sec) 
Heartbeat CPU 0 instructions: 60000000 cycles: 97442083 heartbeat IPC: 0.542817 cumulative IPC: 0.529562 (Simulation time: 1 hr 40 min 47 sec) 
Finished CPU 0 instructions: 50000000 cycles: 94417614 cumulative IPC: 0.529562 (Simulation time: 1 hr 40 min 47 sec) 

ChampSim completed all CPUs

Region of Interest Statistics

CPU 0 cumulative IPC: 0.529562 instructions: 50000000 cycles: 94417614
ITLB TOTAL     ACCESS:    8477669  HIT:    8391344  MISS:      86325  HIT %:    98.9817  MISS %:    1.01826   MPKI: 1.7265
ITLB LOAD TRANSLATION ACCESS:    8477669  HIT:    8391344  MISS:      86325  HIT %:    98.9817  MISS %:    1.01826   MPKI: 1.7265
ITLB PREFETCH  REQUESTED:          0  ISSUED:          0  USEFUL:          0  USELESS:          0
ITLB USEFUL LOAD PREFETCHES:          0 PREFETCH ISSUED TO LOWER LEVEL:          0  ACCURACY: -nan
ITLB TIMELY PREFETCHES:          0 LATE PREFETCHES: 0 DROPPED PREFETCHES: 0
ITLB PREFETCHES SAME FILL-ORIGIN LEVEL: 0 DIFFERENT FILL-ORIGIN LEVEL: 0
ITLB AVERAGE MISS LATENCY: 12.0875 cycles
ITLB RQ	ACCESS:    9778266	FORWARD:          0	MERGED:    1280331	TO_CACHE:    8497935

DTLB TOTAL     ACCESS:   12133289  HIT:   11943207  MISS:     190082  HIT %:    98.4334  MISS %:    1.56662   MPKI: 3.80164
DTLB LOAD TRANSLATION ACCESS:   12133289  HIT:   11943207  MISS:     190082  HIT %:    98.4334  MISS %:    1.56662   MPKI: 3.80164
DTLB PREFETCH  REQUESTED:          0  ISSUED:          0  USEFUL:          0  USELESS:          0
DTLB USEFUL LOAD PREFETCHES:          0 PREFETCH ISSUED TO LOWER LEVEL:          0  ACCURACY: -nan
DTLB TIMELY PREFETCHES:          0 LATE PREFETCHES: 0 DROPPED PREFETCHES: 0
DTLB PREFETCHES SAME FILL-ORIGIN LEVEL: 0 DIFFERENT FILL-ORIGIN LEVEL: 0
DTLB AVERAGE MISS LATENCY: 11.7545 cycles
DTLB RQ	ACCESS:   14564852	FORWARD:          0	MERGED:    2421917	TO_CACHE:   12142935

STLB TOTAL     ACCESS:     899336  HIT:     890103  MISS:       9233  HIT %:    98.9734  MISS %:    1.02665   MPKI: 0.18466
STLB LOAD TRANSLATION ACCESS:     276407  HIT:     267174  MISS:       9233  HIT %:    96.6596  MISS %:    3.34036   MPKI: 0.18466
STLB TRANSLATION FROM L1D PREFETCHER ACCESS:     622929  HIT:     622929  MISS:          0  HIT %:        100  MISS %:          0   MPKI: 0
STLB PREFETCH  REQUESTED:          0  ISSUED:          0  USEFUL:          0  USELESS:          0
STLB USEFUL LOAD PREFETCHES:          0 PREFETCH ISSUED TO LOWER LEVEL:          0  ACCURACY: -nan
STLB TIMELY PREFETCHES:          0 LATE PREFETCHES: 0 DROPPED PREFETCHES: 0
STLB PREFETCHES SAME FILL-ORIGIN LEVEL: 0 DIFFERENT FILL-ORIGIN LEVEL: 0
STLB AVERAGE MISS LATENCY: 84.7974 cycles
STLB RQ	ACCESS:    1077740	FORWARD:          0	MERGED:     178404	TO_CACHE:     899336

STLB Hit, L1D data hit: 0
STLB Hit, L2C data hit: 0
STLB Hit, LLC data hit: 0
STLB Hit, LLC data miss: 0
STLB STLB hints to L2: 0
L1D TOTAL     ACCESS:   15136454  HIT:   14558546  MISS:     577908  HIT %:     96.182  MISS %:    3.81799   MPKI: 11.5582
L1D LOAD      ACCESS:    9148083  HIT:    8844804  MISS:     303279  HIT %:    96.6848  MISS %:    3.31522   MPKI: 6.06558
L1D RFO       ACCESS:    5206219  HIT:    5106885  MISS:      99334  HIT %:     98.092  MISS %:    1.90799   MPKI: 1.98668
L1D PREFETCH  ACCESS:     782152  HIT:     606857  MISS:     175295  HIT %:    77.5881  MISS %:    22.4119   MPKI: 3.5059
L1D PREFETCH  REQUESTED:    1603095  ISSUED:    1603084  USEFUL:      64237  USELESS:     110919
L1D USEFUL LOAD PREFETCHES:      64237 PREFETCH ISSUED TO LOWER LEVEL:     180165  ACCURACY: 35.6545
L1D TIMELY PREFETCHES:      64237 LATE PREFETCHES: 4460 DROPPED PREFETCHES: 0
L1D PREFETCHES SAME FILL-ORIGIN LEVEL: 180165 DIFFERENT FILL-ORIGIN LEVEL: 0
L1D AVERAGE MISS LATENCY: 434375 cycles
L1D RQ	ACCESS:   12712644	FORWARD:          0	MERGED:    3432604	TO_CACHE:    9168471
L1D WQ	ACCESS:    5608672	FORWARD:     111987	MERGED:     212291	TO_CACHE:    5396381
L1D PQ	ACCESS:     801751	FORWARD:          0	MERGED:          0	TO_CACHE:     801333

L1D UNIQUE REGIONS ACCESSED: 0
L1D REGIONS CONFLICTS: 0
L1D Cross Page Prefetch Requests: 0
L1D Same Page Prefetch Requests: 893308
L1D ROI Sum of L1D PQ occupancy: 10316425
L1D PREFETCHES PUSHED FROM L2C: 0
L1I TOTAL     ACCESS:    9668762  HIT:    9156667  MISS:     512095  HIT %:    94.7036  MISS %:    5.29639   MPKI: 10.2419
L1I LOAD      ACCESS:    9668762  HIT:    9156667  MISS:     512095  HIT %:    94.7036  MISS %:    5.29639   MPKI: 10.2419
L1I PREFETCH  REQUESTED:          0  ISSUED:          0  USEFUL:          0  USELESS:          0
L1I USEFUL LOAD PREFETCHES:          0 PREFETCH ISSUED TO LOWER LEVEL:          0  ACCURACY: -nan
L1I TIMELY PREFETCHES:          0 LATE PREFETCHES: 0 DROPPED PREFETCHES: 0
L1I PREFETCHES SAME FILL-ORIGIN LEVEL: 0 DIFFERENT FILL-ORIGIN LEVEL: 0
L1I AVERAGE MISS LATENCY: 34.5837 cycles
L1I RQ	ACCESS:   14337736	FORWARD:          0	MERGED:    4559470	TO_CACHE:    9778266

BTB TOTAL     ACCESS:    7103805  HIT:    6262902  MISS:     840903  HIT %:    88.1626  MISS %:    11.8374   MPKI: 16.8181
BTB BRANCH_DIRECT_JUMP	ACCESS:     684327  HIT:     652259  MISS:      32068
BTB BRANCH_INDIRECT	ACCESS:     441278  HIT:     206647  MISS:     234631
BTB BRANCH_CONDITIONAL	ACCESS:    4304334  HIT:    4222727  MISS:      81607
BTB BRANCH_DIRECT_CALL	ACCESS:     559763  HIT:     506973  MISS:      52790
BTB BRANCH_INDIRECT_CALL	ACCESS:     263528  HIT:     188816  MISS:      74712
BTB BRANCH_RETURN	ACCESS:     850575  HIT:     485480  MISS:     365095
BTB BRANCH_OTHER ACCESS:          0  HIT:          0  MISS:          0

L2C TOTAL     ACCESS:    1429412  HIT:    1075157  MISS:     354255  HIT %:    75.2167  MISS %:    24.7833   MPKI: 7.0851
L2C LOAD      ACCESS:     810894  HIT:     598451  MISS:     212443  HIT %:    73.8014  MISS %:    26.1986   MPKI: 4.24886
L2C DATA LOAD MPKI: 1.25682
L2C INSTRUCTION LOAD MPKI: 2.99204
L2C RFO       ACCESS:      98918  HIT:      38521  MISS:      60397  HIT %:    38.9424  MISS %:    61.0576   MPKI: 1.20794
L2C PREFETCH  ACCESS:     339496  HIT:     263764  MISS:      75732  HIT %:    77.6928  MISS %:    22.3072   MPKI: 1.51464
L2C DATA PREFETCH MPKI: 1.51464
L2C INSTRUCTION PREFETCH MPKI: 0
L2C WRITEBACK ACCESS:     170271  HIT:     169512  MISS:        759  HIT %:    99.5542  MISS %:    0.44576   MPKI: 0.01518
L2C LOAD TRANSLATION ACCESS:       9833  HIT:       4909  MISS:       4924  HIT %:    49.9237  MISS %:    50.0763   MPKI: 0.09848
L2C PREFETCH  REQUESTED:     166798  ISSUED:     166798  USEFUL:      18914  USELESS:      57638
L2C USEFUL LOAD PREFETCHES:      18914 PREFETCH ISSUED TO LOWER LEVEL:      76684  ACCURACY: 24.6649
L2C TIMELY PREFETCHES:      18914 LATE PREFETCHES: 951 DROPPED PREFETCHES: 0
L2C PREFETCHES SAME FILL-ORIGIN LEVEL: 38204 DIFFERENT FILL-ORIGIN LEVEL: 0
L2C AVERAGE MISS LATENCY: 85.2988 cycles
L2C RQ	ACCESS:     919670	FORWARD:          0	MERGED:          0	TO_CACHE:     919645
L2C WQ	ACCESS:     170271	FORWARD:         29	MERGED:          0	TO_CACHE:     170271
L2C PQ	ACCESS:     346963	FORWARD:          0	MERGED:       3392	TO_CACHE:     343567

L2C Instructions Evicting Data 81516
L2C Translations Evicting Data 2854
L2C Data Evicting Data 112720
L2C Instructions Evicting Instructions 66018
L2C Translations Evicting Instructions 1974
L2C Data Evicting Instructions 83347
L2C Instructions Evicting Translations 2068
L2C Translations Evicting Translations 96
L2C Data Evicting Translations 2903
L2C Dense regions hint from L2: 0
PSCL5 TOTAL     ACCESS:       9233  HIT:       9233  MISS:          0  HIT %:        100  MISS %:          0   MPKI: 0
PSCL5 LOAD TRANSLATION ACCESS:       9233  HIT:       9233  MISS:          0  HIT %:        100  MISS %:          0   MPKI: 0
PSCL5 PREFETCH  REQUESTED:          0  ISSUED:          0  USEFUL:          0  USELESS:          0
PSCL5 USEFUL LOAD PREFETCHES:          0 PREFETCH ISSUED TO LOWER LEVEL:          0  ACCURACY: -nan
PSCL5 TIMELY PREFETCHES:          0 LATE PREFETCHES: 0 DROPPED PREFETCHES: 0
PSCL5 PREFETCHES SAME FILL-ORIGIN LEVEL: 0 DIFFERENT FILL-ORIGIN LEVEL: 0

PSCL4 TOTAL     ACCESS:       7454  HIT:       7441  MISS:         13  HIT %:    99.8256  MISS %:   0.174403   MPKI: 0.00026
PSCL4 LOAD TRANSLATION ACCESS:       7454  HIT:       7441  MISS:         13  HIT %:    99.8256  MISS %:   0.174403   MPKI: 0.00026
PSCL4 PREFETCH  REQUESTED:          0  ISSUED:          0  USEFUL:          0  USELESS:          0
PSCL4 USEFUL LOAD PREFETCHES:          0 PREFETCH ISSUED TO LOWER LEVEL:          0  ACCURACY: -nan
PSCL4 TIMELY PREFETCHES:          0 LATE PREFETCHES: 0 DROPPED PREFETCHES: 0
PSCL4 PREFETCHES SAME FILL-ORIGIN LEVEL: 0 DIFFERENT FILL-ORIGIN LEVEL: 0

PSCL3 TOTAL     ACCESS:       9002  HIT:       8956  MISS:         46  HIT %:     99.489  MISS %:   0.510998   MPKI: 0.00092
PSCL3 LOAD TRANSLATION ACCESS:       9002  HIT:       8956  MISS:         46  HIT %:     99.489  MISS %:   0.510998   MPKI: 0.00092
PSCL3 PREFETCH  REQUESTED:          0  ISSUED:          0  USEFUL:          0  USELESS:          0
PSCL3 USEFUL LOAD PREFETCHES:          0 PREFETCH ISSUED TO LOWER LEVEL:          0  ACCURACY: -nan
PSCL3 TIMELY PREFETCHES:          0 LATE PREFETCHES: 0 DROPPED PREFETCHES: 0
PSCL3 PREFETCHES SAME FILL-ORIGIN LEVEL: 0 DIFFERENT FILL-ORIGIN LEVEL: 0

PSCL2 TOTAL     ACCESS:       9233  HIT:       8686  MISS:        547  HIT %:    94.0756  MISS %:     5.9244   MPKI: 0.01094
PSCL2 LOAD TRANSLATION ACCESS:       9233  HIT:       8686  MISS:        547  HIT %:    94.0756  MISS %:     5.9244   MPKI: 0.01094
PSCL2 PREFETCH  REQUESTED:          0  ISSUED:          0  USEFUL:          0  USELESS:          0
PSCL2 USEFUL LOAD PREFETCHES:          0 PREFETCH ISSUED TO LOWER LEVEL:          0  ACCURACY: -nan
PSCL2 TIMELY PREFETCHES:          0 LATE PREFETCHES: 0 DROPPED PREFETCHES: 0
PSCL2 PREFETCHES SAME FILL-ORIGIN LEVEL: 0 DIFFERENT FILL-ORIGIN LEVEL: 0

LLC TOTAL     ACCESS:     431843  HIT:     303522  MISS:     128321  HIT %:    70.2853  MISS %:    29.7147   MPKI: 2.56642
LLC LOAD      ACCESS:     211558  HIT:     151622  MISS:      59936  HIT %:    71.6692  MISS %:    28.3308   MPKI: 1.19872
LLC RFO       ACCESS:      60331  HIT:      25975  MISS:      34356  HIT %:    43.0542  MISS %:    56.9458   MPKI: 0.68712
LLC PREFETCH  ACCESS:      76684  HIT:      46337  MISS:      30347  HIT %:    60.4259  MISS %:    39.5741   MPKI: 0.60694
LLC WRITEBACK ACCESS:      78346  HIT:      76103  MISS:       2243  HIT %:    97.1371  MISS %:    2.86294   MPKI: 0.04486
LLC LOAD TRANSLATION ACCESS:       4924  HIT:       3485  MISS:       1439  HIT %:    70.7758  MISS %:    29.2242   MPKI: 0.02878
LLC PREFETCH  REQUESTED:          0  ISSUED:          0  USEFUL:       3705  USELESS:      29066
LLC USEFUL LOAD PREFETCHES:       3705 PREFETCH ISSUED TO LOWER LEVEL:      30347  ACCURACY: 12.2088
LLC TIMELY PREFETCHES:       3705 LATE PREFETCHES: 0 DROPPED PREFETCHES: 0
LLC PREFETCHES SAME FILL-ORIGIN LEVEL: 0 DIFFERENT FILL-ORIGIN LEVEL: 0
LLC AVERAGE MISS LATENCY: 152.614 cycles
LLC RQ	ACCESS:     276813	FORWARD:          0	MERGED:          0	TO_CACHE:     276813
LLC WQ	ACCESS:      78347	FORWARD:          0	MERGED:          0	TO_CACHE:      78347
LLC PQ	ACCESS:      76684	FORWARD:          0	MERGED:          0	TO_CACHE:      76684

LLC Dense regions hint to LLC: 0

RAW hits: 877428
Loads Generated: 13590072
Loads sent to L1D: 12712644
Stores Generated: 5608673
Stores sent to L1D: 5608672
Major fault: 0 Minor fault: 3859
Allocated PAGES: 3859

stream: 
stream:times selected: 1390774
stream:pref_filled: 126701
stream:pref_useful: 44123
stream:pref_late: 3379
stream:misses: 15663
stream:misses_by_poll: 0

CS: 
CS:times selected: 80124
CS:pref_filled: 16056
CS:pref_useful: 11547
CS:pref_late: 281
CS:misses: 1445
CS:misses_by_poll: 11

CPLX: 
CPLX:times selected: 1301574
CPLX:pref_filled: 51524
CPLX:pref_useful: 12959
CPLX:pref_late: 400
CPLX:misses: 73218
CPLX:misses_by_poll: 81

NL_L1: 
NL:times selected: 12445
NL:pref_filled: 1308
NL:pref_useful: 525
NL:pref_late: 34
NL:misses: 964
NL:misses_by_poll: 0

total selections: 2784917
total_filled: 175295
total_useful: 64237
total_late: 4873
total_polluted: 92
total_misses_after_warmup: 323666
conflicts: 2071721
Degree Incremented Times: 0
Degree Decremented Times: 103902

L1 IP Table Write Accesses: 6430765
L1 IP Table Read Accesses: 4359044
L1 RST Write Accesses: 1220122
L1 RST Read Accesses: 2440244
L1 CSPT Write Accesses: 1220122
L1 CSPT Read Accesses: 2360244
L1 RR Filter Tag Write Accesses: 801762
L1 RR Filter Tag Read Accesses: 45621266
L1 IP Table Tag Write Accesses: 9168470
L1 IP Table Tag Read Accesses: 9168470
L1 RST Tag Write Accesses: 0
L1 RST Tag Read Accesses: 11097255
L1 RR Filter Write Accesses: 0
L1 RR Filter Read Accesses: 1702286
test: 432879
L2 IP Table Read Accesses: 782159
L2 IP Table Write Accesses: 747101
L2 IP Table Tag Read Accesses: 475722
L2 IP Table Tag Write Accesses: 475722

DRAM Statistics
 CHANNEL 0
 RQ ROW_BUFFER_HIT:      30652  ROW_BUFFER_MISS:      95426
 DBUS_CONGESTED:        121
 WQ ROW_BUFFER_HIT:       8828  ROW_BUFFER_MISS:      31195  FULL:          0

 AVG_CONGESTED_CYCLE: 4
 All warmup complete: 2
Channel 0 Bank busy for read cycles: 0
Channel 0 Bank busy for write cycles: 0
Channel 0
Rank 0
0banks busy for read cycles: 78210162
0banks busy for write cycles: 20403
1banks busy for read cycles: 8357424
1banks busy for write cycles: 3145541
2banks busy for read cycles: 2170716
2banks busy for write cycles: 971050
3banks busy for read cycles: 472585
3banks busy for write cycles: 361875
4banks busy for read cycles: 144280
4banks busy for write cycles: 157278
5banks busy for read cycles: 56936
5banks busy for write cycles: 80264
6banks busy for read cycles: 37274
6banks busy for write cycles: 45273
7banks busy for read cycles: 29643
7banks busy for write cycles: 33001
8banks busy for read cycles: 56080
8banks busy for write cycles: 67830

CPU 0 Branch Prediction Accuracy: 92.6971% MPKI: 13.3583 Average ROB Occupancy at Mispredict: 32.8485
Branch types
NOT_BRANCH: 40853744 81.7075%
BRANCH_DIRECT_JUMP: 684327 1.36865%
BRANCH_INDIRECT: 441278 0.882556%
BRANCH_CONDITIONAL: 6346444 12.6929%
BRANCH_DIRECT_CALL: 559763 1.11953%
BRANCH_INDIRECT_CALL: 263528 0.527056%
BRANCH_RETURN: 850575 1.70115%
BRANCH_OTHER: 0 0%

@sumon_overall_L1D     64237      4460    110919    175295   1603084   1603095
@Sumon_Early_by_class_L1D     39698     10763     12028        34
@Sumon_Late_by_class_L1D      2997       277       382        34

@Sumon_Early_by_cycle_L1D     15261      7137      6430      3682      2232      6506      4550      4568      3824      5329      2815      1903
@Sumon_Late_by_cycle_L1D      4010       432        17         1         0         0         0         0         0         0         0         0
@Sumon_Early_stream_L1D     10338      4106      3515      2138      1264      3909      2955      2941      2251      3313      1744      1224
@Sumon_Early_CS_L1D      2259      1943      1941       866       512      1256       545       452       392       334       154       109
@Sumon_Early_CPLX_L1D      2278       914       804       576       413      1116       916      1050      1082      1530       835       514
@Sumon_Late_stream_L1D      2654       332        10         1         0         0         0         0         0         0         0         0
@Sumon_Late_CS_L1D       215        56         6         0         0         0         0         0         0         0         0         0
@Sumon_Late_CPLX_L1D       350        31         1         0         0         0         0         0         0         0         0         0
@sumon_overall_L2C     18914       951     57638     75732    166798    166798
@Sumon_Early_by_class_L2C      3939       707      1745         0
@Sumon_Late_by_class_L2C         0         0         0         0

@Sumon_Early_by_cycle_L2C      1775       994       836       541       392      1169       731       670       648       930      1040      9188
@Sumon_Late_by_cycle_L2C       580       364         7         0         0         0         0         0         0         0         0         0
@Sumon_Early_stream_L2C         0         0         0         0         0         0         0         1         4        81       259      3594
@Sumon_Early_CS_L2C         0         0         0         0         0         0         0         2         0         8        24       673
@Sumon_Early_CPLX_L2C         0         0         0         0         0         0         0         0         2        32       102      1609
@Sumon_Late_stream_L2C         0         0         0         0         0         0         0         0         0         0         0         0
@Sumon_Late_CS_L2C         0         0         0         0         0         0         0         0         0         0         0         0
@Sumon_Late_CPLX_L2C         0         0         0         0         0         0         0         0         0         0         0         0
DRAM PAGES: 1048576
Allocated PAGES: 3859
