
*** ChampSim Multicore Out-of-Order Simulator ***

Warmup Instructions: 10000000
Simulation Instructions: 50000000
Number of CPUs: 1
LLC sets: 2048
LLC ways: 16
Off-chip DRAM Size: 4096 MB Channels: 1 Width: 64-bit Data Rate: 6400 MT/s
CPU 0 runs traces/clientserver/server_027.champsimtrace.xz
.xz
CPU 0 Bimodal branch predictor
BTB has LRU replacement policy
ITLB has LRU replacement policy
DTLB has LRU replacement policy
STLB has LRU replacement policy
L1I has LRU replacement policy
IP Table Entries: 256
L1D has LRU replacement policy
IP_Table L2 entries: 256
L2C has LRU replacement policy
Initialize DRRIP state for LLC
Heartbeat CPU 0 instructions: 10000000 cycles: 2886890 heartbeat IPC: 3.46394 cumulative IPC: 3.46394 (Simulation time: 0 hr 18 min 0 sec) 

Warmup complete CPU 0 instructions: 10000004 cycles: 2886891 (Simulation time: 0 hr 18 min 0 sec) 

Heartbeat CPU 0 instructions: 20000001 cycles: 28103064 heartbeat IPC: 0.396571 cumulative IPC: 0.396571 (Simulation time: 0 hr 34 min 56 sec) 
Heartbeat CPU 0 instructions: 30000001 cycles: 53218079 heartbeat IPC: 0.398168 cumulative IPC: 0.397368 (Simulation time: 0 hr 52 min 4 sec) 
Heartbeat CPU 0 instructions: 40000001 cycles: 78318944 heartbeat IPC: 0.398393 cumulative IPC: 0.397709 (Simulation time: 1 hr 9 min 8 sec) 
Heartbeat CPU 0 instructions: 50000000 cycles: 103414531 heartbeat IPC: 0.398476 cumulative IPC: 0.3979 (Simulation time: 1 hr 26 min 18 sec) 
Heartbeat CPU 0 instructions: 60000002 cycles: 128584962 heartbeat IPC: 0.397292 cumulative IPC: 0.397779 (Simulation time: 1 hr 41 min 26 sec) 
Finished CPU 0 instructions: 50000001 cycles: 125698077 cumulative IPC: 0.397779 (Simulation time: 1 hr 41 min 26 sec) 

ChampSim completed all CPUs

Region of Interest Statistics

CPU 0 cumulative IPC: 0.397779 instructions: 50000001 cycles: 125698077
ITLB TOTAL     ACCESS:    8422659  HIT:    7931839  MISS:     490820  HIT %:    94.1726  MISS %:    5.82738   MPKI: 9.8164
ITLB LOAD TRANSLATION ACCESS:    8422659  HIT:    7931839  MISS:     490820  HIT %:    94.1726  MISS %:    5.82738   MPKI: 9.8164
ITLB PREFETCH  REQUESTED:          0  ISSUED:          0  USEFUL:          0  USELESS:          0
ITLB USEFUL LOAD PREFETCHES:          0 PREFETCH ISSUED TO LOWER LEVEL:          0  ACCURACY: -nan
ITLB TIMELY PREFETCHES:          0 LATE PREFETCHES: 0 DROPPED PREFETCHES: 0
ITLB PREFETCHES SAME FILL-ORIGIN LEVEL: 0 DIFFERENT FILL-ORIGIN LEVEL: 0
ITLB AVERAGE MISS LATENCY: 9.06006 cycles
ITLB RQ	ACCESS:   10058677	FORWARD:          0	MERGED:    1512367	TO_CACHE:    8546310

DTLB TOTAL     ACCESS:   12631441  HIT:   12156176  MISS:     475265  HIT %:    96.2374  MISS %:    3.76256   MPKI: 9.5053
DTLB LOAD TRANSLATION ACCESS:   12631441  HIT:   12156176  MISS:     475265  HIT %:    96.2374  MISS %:    3.76256   MPKI: 9.5053
DTLB PREFETCH  REQUESTED:          0  ISSUED:          0  USEFUL:          0  USELESS:          0
DTLB USEFUL LOAD PREFETCHES:          0 PREFETCH ISSUED TO LOWER LEVEL:          0  ACCURACY: -nan
DTLB TIMELY PREFETCHES:          0 LATE PREFETCHES: 0 DROPPED PREFETCHES: 0
DTLB PREFETCHES SAME FILL-ORIGIN LEVEL: 0 DIFFERENT FILL-ORIGIN LEVEL: 0
DTLB AVERAGE MISS LATENCY: 9.39014 cycles
DTLB RQ	ACCESS:   15747308	FORWARD:          0	MERGED:    3095916	TO_CACHE:   12651392

STLB TOTAL     ACCESS:    1383616  HIT:    1381307  MISS:       2309  HIT %:    99.8331  MISS %:   0.166882   MPKI: 0.04618
STLB LOAD TRANSLATION ACCESS:     966085  HIT:     963776  MISS:       2309  HIT %:     99.761  MISS %:   0.239006   MPKI: 0.04618
STLB TRANSLATION FROM L1D PREFETCHER ACCESS:     417531  HIT:     417531  MISS:          0  HIT %:        100  MISS %:          0   MPKI: 0
STLB PREFETCH  REQUESTED:          0  ISSUED:          0  USEFUL:          0  USELESS:          0
STLB USEFUL LOAD PREFETCHES:          0 PREFETCH ISSUED TO LOWER LEVEL:          0  ACCURACY: -nan
STLB TIMELY PREFETCHES:          0 LATE PREFETCHES: 0 DROPPED PREFETCHES: 0
STLB PREFETCHES SAME FILL-ORIGIN LEVEL: 0 DIFFERENT FILL-ORIGIN LEVEL: 0
STLB AVERAGE MISS LATENCY: 89.1992 cycles
STLB RQ	ACCESS:    1499693	FORWARD:          0	MERGED:     116077	TO_CACHE:    1383616

STLB Hit, L1D data hit: 0
STLB Hit, L2C data hit: 0
STLB Hit, LLC data hit: 0
STLB Hit, LLC data miss: 0
STLB STLB hints to L2: 0
L1D TOTAL     ACCESS:   15762519  HIT:   14606141  MISS:    1156378  HIT %:    92.6637  MISS %:    7.33625   MPKI: 23.1276
L1D LOAD      ACCESS:    8823055  HIT:    8110740  MISS:     712315  HIT %:    91.9267  MISS %:    8.07334   MPKI: 14.2463
L1D RFO       ACCESS:    6439536  HIT:    6145014  MISS:     294522  HIT %:    95.4263  MISS %:    4.57365   MPKI: 5.89044
L1D PREFETCH  ACCESS:     499928  HIT:     350387  MISS:     149541  HIT %:    70.0875  MISS %:    29.9125   MPKI: 2.99082
L1D PREFETCH  REQUESTED:    1067407  ISSUED:    1067407  USEFUL:      45855  USELESS:     103704
L1D USEFUL LOAD PREFETCHES:      45855 PREFETCH ISSUED TO LOWER LEVEL:     171172  ACCURACY: 26.7888
L1D TIMELY PREFETCHES:      45855 LATE PREFETCHES: 21108 DROPPED PREFETCHES: 0
L1D PREFETCHES SAME FILL-ORIGIN LEVEL: 171172 DIFFERENT FILL-ORIGIN LEVEL: 0
L1D AVERAGE MISS LATENCY: 1.22039e+06 cycles
L1D RQ	ACCESS:   12112704	FORWARD:          0	MERGED:    3143626	TO_CACHE:    8855090
L1D WQ	ACCESS:    6938884	FORWARD:     114179	MERGED:      46666	TO_CACHE:    6892218
L1D PQ	ACCESS:     533799	FORWARD:          0	MERGED:          0	TO_CACHE:     533608

L1D UNIQUE REGIONS ACCESSED: 0
L1D REGIONS CONFLICTS: 0
L1D Cross Page Prefetch Requests: 0
L1D Same Page Prefetch Requests: 637336
L1D ROI Sum of L1D PQ occupancy: 6854934
L1D PREFETCHES PUSHED FROM L2C: 0
L1I TOTAL     ACCESS:    9599338  HIT:    6850776  MISS:    2748562  HIT %:    71.3672  MISS %:    28.6328   MPKI: 54.9712
L1I LOAD      ACCESS:    9599338  HIT:    6850776  MISS:    2748562  HIT %:    71.3672  MISS %:    28.6328   MPKI: 54.9712
L1I PREFETCH  REQUESTED:          0  ISSUED:          0  USEFUL:          0  USELESS:          0
L1I USEFUL LOAD PREFETCHES:          0 PREFETCH ISSUED TO LOWER LEVEL:          0  ACCURACY: -nan
L1I TIMELY PREFETCHES:          0 LATE PREFETCHES: 0 DROPPED PREFETCHES: 0
L1I PREFETCHES SAME FILL-ORIGIN LEVEL: 0 DIFFERENT FILL-ORIGIN LEVEL: 0
L1I AVERAGE MISS LATENCY: 18.7408 cycles
L1I RQ	ACCESS:   13827264	FORWARD:          0	MERGED:    3768587	TO_CACHE:   10058677

BTB TOTAL     ACCESS:    5994310  HIT:    3988077  MISS:    2006233  HIT %:     66.531  MISS %:     33.469   MPKI: 40.1247
BTB BRANCH_DIRECT_JUMP	ACCESS:     527013  HIT:     350195  MISS:     176818
BTB BRANCH_INDIRECT	ACCESS:     206168  HIT:     168860  MISS:      37308
BTB BRANCH_CONDITIONAL	ACCESS:    3044122  HIT:    2482259  MISS:     561863
BTB BRANCH_DIRECT_CALL	ACCESS:     934907  HIT:     527457  MISS:     407450
BTB BRANCH_INDIRECT_CALL	ACCESS:     173595  HIT:      94867  MISS:      78728
BTB BRANCH_RETURN	ACCESS:    1108505  HIT:     364439  MISS:     744066
BTB BRANCH_OTHER ACCESS:          0  HIT:          0  MISS:          0

L2C TOTAL     ACCESS:    5019764  HIT:    4251525  MISS:     768239  HIT %:    84.6957  MISS %:    15.3043   MPKI: 15.3648
L2C LOAD      ACCESS:    3439767  HIT:    2907350  MISS:     532417  HIT %:    84.5217  MISS %:    15.4783   MPKI: 10.6483
L2C DATA LOAD MPKI: 2.22126
L2C INSTRUCTION LOAD MPKI: 8.42708
L2C RFO       ACCESS:     293998  HIT:     207797  MISS:      86201  HIT %:    70.6797  MISS %:    29.3203   MPKI: 1.72402
L2C PREFETCH  ACCESS:     758548  HIT:     617479  MISS:     141069  HIT %:    81.4028  MISS %:    18.5972   MPKI: 2.82138
L2C DATA PREFETCH MPKI: 2.82138
L2C INSTRUCTION PREFETCH MPKI: 0
L2C WRITEBACK ACCESS:     524968  HIT:     518259  MISS:       6709  HIT %:     98.722  MISS %:    1.27798   MPKI: 0.13418
L2C LOAD TRANSLATION ACCESS:       2483  HIT:        640  MISS:       1843  HIT %:    25.7753  MISS %:    74.2247   MPKI: 0.03686
L2C PREFETCH  REQUESTED:     601557  ISSUED:     601557  USEFUL:      25777  USELESS:     115358
L2C USEFUL LOAD PREFETCHES:      25777 PREFETCH ISSUED TO LOWER LEVEL:     144509  ACCURACY: 17.8376
L2C TIMELY PREFETCHES:      25777 LATE PREFETCHES: 3440 DROPPED PREFETCHES: 0
L2C PREFETCHES SAME FILL-ORIGIN LEVEL: 91893 DIFFERENT FILL-ORIGIN LEVEL: 0
L2C AVERAGE MISS LATENCY: 35.426 cycles
L2C RQ	ACCESS:    3736252	FORWARD:          0	MERGED:          0	TO_CACHE:    3736249
L2C WQ	ACCESS:     524968	FORWARD:          6	MERGED:          0	TO_CACHE:     524968
L2C PQ	ACCESS:     772729	FORWARD:          0	MERGED:       5583	TO_CACHE:     767143

L2C Instructions Evicting Data 167715
L2C Translations Evicting Data 1279
L2C Data Evicting Data 173753
L2C Instructions Evicting Instructions 252994
L2C Translations Evicting Instructions 558
L2C Data Evicting Instructions 163398
L2C Instructions Evicting Translations 645
L2C Translations Evicting Translations 6
L2C Data Evicting Translations 1177
L2C Dense regions hint from L2: 0
PSCL5 TOTAL     ACCESS:       2309  HIT:       2309  MISS:          0  HIT %:        100  MISS %:          0   MPKI: 0
PSCL5 LOAD TRANSLATION ACCESS:       2309  HIT:       2309  MISS:          0  HIT %:        100  MISS %:          0   MPKI: 0
PSCL5 PREFETCH  REQUESTED:          0  ISSUED:          0  USEFUL:          0  USELESS:          0
PSCL5 USEFUL LOAD PREFETCHES:          0 PREFETCH ISSUED TO LOWER LEVEL:          0  ACCURACY: -nan
PSCL5 TIMELY PREFETCHES:          0 LATE PREFETCHES: 0 DROPPED PREFETCHES: 0
PSCL5 PREFETCHES SAME FILL-ORIGIN LEVEL: 0 DIFFERENT FILL-ORIGIN LEVEL: 0

PSCL4 TOTAL     ACCESS:       2073  HIT:       2050  MISS:         23  HIT %:    98.8905  MISS %:     1.1095   MPKI: 0.00046
PSCL4 LOAD TRANSLATION ACCESS:       2073  HIT:       2050  MISS:         23  HIT %:    98.8905  MISS %:     1.1095   MPKI: 0.00046
PSCL4 PREFETCH  REQUESTED:          0  ISSUED:          0  USEFUL:          0  USELESS:          0
PSCL4 USEFUL LOAD PREFETCHES:          0 PREFETCH ISSUED TO LOWER LEVEL:          0  ACCURACY: -nan
PSCL4 TIMELY PREFETCHES:          0 LATE PREFETCHES: 0 DROPPED PREFETCHES: 0
PSCL4 PREFETCHES SAME FILL-ORIGIN LEVEL: 0 DIFFERENT FILL-ORIGIN LEVEL: 0

PSCL3 TOTAL     ACCESS:       2129  HIT:       2105  MISS:         24  HIT %:    98.8727  MISS %:    1.12729   MPKI: 0.00048
PSCL3 LOAD TRANSLATION ACCESS:       2129  HIT:       2105  MISS:         24  HIT %:    98.8727  MISS %:    1.12729   MPKI: 0.00048
PSCL3 PREFETCH  REQUESTED:          0  ISSUED:          0  USEFUL:          0  USELESS:          0
PSCL3 USEFUL LOAD PREFETCHES:          0 PREFETCH ISSUED TO LOWER LEVEL:          0  ACCURACY: -nan
PSCL3 TIMELY PREFETCHES:          0 LATE PREFETCHES: 0 DROPPED PREFETCHES: 0
PSCL3 PREFETCHES SAME FILL-ORIGIN LEVEL: 0 DIFFERENT FILL-ORIGIN LEVEL: 0

PSCL2 TOTAL     ACCESS:       2309  HIT:       2174  MISS:        135  HIT %:    94.1533  MISS %:    5.84669   MPKI: 0.0027
PSCL2 LOAD TRANSLATION ACCESS:       2309  HIT:       2174  MISS:        135  HIT %:    94.1533  MISS %:    5.84669   MPKI: 0.0027
PSCL2 PREFETCH  REQUESTED:          0  ISSUED:          0  USEFUL:          0  USELESS:          0
PSCL2 USEFUL LOAD PREFETCHES:          0 PREFETCH ISSUED TO LOWER LEVEL:          0  ACCURACY: -nan
PSCL2 TIMELY PREFETCHES:          0 LATE PREFETCHES: 0 DROPPED PREFETCHES: 0
PSCL2 PREFETCHES SAME FILL-ORIGIN LEVEL: 0 DIFFERENT FILL-ORIGIN LEVEL: 0

LLC TOTAL     ACCESS:     899606  HIT:     867194  MISS:      32412  HIT %:    96.3971  MISS %:    3.60291   MPKI: 0.64824
LLC LOAD      ACCESS:     529169  HIT:     524375  MISS:       4794  HIT %:    99.0941  MISS %:   0.905949   MPKI: 0.09588
LLC RFO       ACCESS:      86009  HIT:      70181  MISS:      15828  HIT %:    81.5973  MISS %:    18.4027   MPKI: 0.31656
LLC PREFETCH  ACCESS:     144509  HIT:     133056  MISS:      11453  HIT %:    92.0745  MISS %:    7.92546   MPKI: 0.22906
LLC WRITEBACK ACCESS:     138076  HIT:     137885  MISS:        191  HIT %:    99.8617  MISS %:    0.13833   MPKI: 0.00382
LLC LOAD TRANSLATION ACCESS:       1843  HIT:       1697  MISS:        146  HIT %:    92.0781  MISS %:    7.92187   MPKI: 0.00292
LLC PREFETCH  REQUESTED:          0  ISSUED:          0  USEFUL:       1081  USELESS:       6588
LLC USEFUL LOAD PREFETCHES:       1081 PREFETCH ISSUED TO LOWER LEVEL:      11453  ACCURACY: 9.43858
LLC TIMELY PREFETCHES:       1081 LATE PREFETCHES: 0 DROPPED PREFETCHES: 0
LLC PREFETCHES SAME FILL-ORIGIN LEVEL: 0 DIFFERENT FILL-ORIGIN LEVEL: 0
LLC AVERAGE MISS LATENCY: 134.055 cycles
LLC RQ	ACCESS:     617021	FORWARD:          0	MERGED:          0	TO_CACHE:     617021
LLC WQ	ACCESS:     138076	FORWARD:          0	MERGED:          0	TO_CACHE:     138076
LLC PQ	ACCESS:     144509	FORWARD:          0	MERGED:          0	TO_CACHE:     144509

LLC Dense regions hint to LLC: 0

RAW hits: 527883
Loads Generated: 12640584
Loads sent to L1D: 12112704
Stores Generated: 6938885
Stores sent to L1D: 6938884
Major fault: 0 Minor fault: 2251
Allocated PAGES: 2251

stream: 
stream:times selected: 1022942
stream:pref_filled: 102184
stream:pref_useful: 18426
stream:pref_late: 15721
stream:misses: 5565
stream:misses_by_poll: 0

CS: 
CS:times selected: 132532
CS:pref_filled: 49603
CS:pref_useful: 31256
CS:pref_late: 3856
CS:misses: 7347
CS:misses_by_poll: 18

CPLX: 
CPLX:times selected: 888370
CPLX:pref_filled: 22480
CPLX:pref_useful: 4078
CPLX:pref_late: 1429
CPLX:misses: 63648
CPLX:misses_by_poll: 1

NL_L1: 
NL:times selected: 5906
NL:pref_filled: 615
NL:pref_useful: 82
NL:pref_late: 3
NL:misses: 109
NL:misses_by_poll: 0

total selections: 2049750
total_filled: 149541
total_useful: 45855
total_late: 22385
total_polluted: 19
total_misses_after_warmup: 744352
conflicts: 3255964
Degree Incremented Times: 0
Degree Decremented Times: 129436

L1 IP Table Write Accesses: 5301463
L1 IP Table Read Accesses: 2045499
L1 RST Write Accesses: 860555
L1 RST Read Accesses: 1721110
L1 CSPT Write Accesses: 860555
L1 CSPT Read Accesses: 1606799
L1 RR Filter Tag Write Accesses: 533799
L1 RR Filter Tag Read Accesses: 38342767
L1 IP Table Tag Write Accesses: 8855092
L1 IP Table Tag Read Accesses: 8855092
L1 RST Tag Write Accesses: 0
L1 RST Tag Read Accesses: 7576580
L1 RR Filter Write Accesses: 0
L1 RR Filter Read Accesses: 1412388
test: 148650
L2 IP Table Read Accesses: 1106075
L2 IP Table Write Accesses: 1542820
L2 IP Table Tag Read Accesses: 857168
L2 IP Table Tag Write Accesses: 857168

DRAM Statistics
 CHANNEL 0
 RQ ROW_BUFFER_HIT:      15838  ROW_BUFFER_MISS:      16368
 DBUS_CONGESTED:          5
 WQ ROW_BUFFER_HIT:        692  ROW_BUFFER_MISS:       6675  FULL:          0

 AVG_CONGESTED_CYCLE: 5
 All warmup complete: 2
Channel 0 Bank busy for read cycles: 0
Channel 0 Bank busy for write cycles: 0
Channel 0
Rank 0
0banks busy for read cycles: 123647082
0banks busy for write cycles: 2346
1banks busy for read cycles: 726002
1banks busy for write cycles: 281690
2banks busy for read cycles: 448716
2banks busy for write cycles: 98325
3banks busy for read cycles: 102082
3banks busy for write cycles: 39867
4banks busy for read cycles: 76908
4banks busy for write cycles: 27134
5banks busy for read cycles: 39216
5banks busy for write cycles: 21562
6banks busy for read cycles: 34115
6banks busy for write cycles: 18256
7banks busy for read cycles: 28010
7banks busy for write cycles: 16720
8banks busy for read cycles: 52704
8banks busy for write cycles: 37343

CPU 0 Branch Prediction Accuracy: 91.5131% MPKI: 15.508 Average ROB Occupancy at Mispredict: 17.2422
Branch types
NOT_BRANCH: 40863273 81.7265%
BRANCH_DIRECT_JUMP: 527013 1.05403%
BRANCH_INDIRECT: 206168 0.412336%
BRANCH_CONDITIONAL: 6186185 12.3724%
BRANCH_DIRECT_CALL: 934907 1.86981%
BRANCH_INDIRECT_CALL: 173595 0.34719%
BRANCH_RETURN: 1108505 2.21701%
BRANCH_OTHER: 0 0%

@sumon_overall_L1D     45855     21108    103704    149541   1067407   1067407
@Sumon_Early_by_class_L1D     14900     26581      3339         1
@Sumon_Late_by_class_L1D     14976      3605      1209         1

@Sumon_Early_by_cycle_L1D     31297      3517      1974       843       283      1351       917      1501      1120      2243       713        96
@Sumon_Late_by_cycle_L1D     20118       918        60         9         2         1         0         0         0         0         0         0
@Sumon_Early_stream_L1D      6020      1584      1206       677       158       952       546       964       765      1369       566        93
@Sumon_Early_CS_L1D     23883      1640       604        91         8        36         7       280         1        27         4         0
@Sumon_Early_CPLX_L1D      1236       197       137        58       116       352       256       229       199       416       140         3
@Sumon_Late_stream_L1D     14642       333         1         0         0         0         0         0         0         0         0         0
@Sumon_Late_CS_L1D      2957       577        59         9         2         1         0         0         0         0         0         0
@Sumon_Late_CPLX_L1D      1202         7         0         0         0         0         0         0         0         0         0         0
@sumon_overall_L2C     25777      3440    115358    141069    601557    601557
@Sumon_Early_by_class_L2C      1942       133       472         0
@Sumon_Late_by_class_L2C         0         0         0         0

@Sumon_Early_by_cycle_L2C      4823      2740      1993      1482       698      2319      2628      1406       908       398      1257      5125
@Sumon_Late_by_cycle_L2C      3118       322         0         0         0         0         0         0         0         0         0         0
@Sumon_Early_stream_L2C         0         0         0         0         0         0         0         0         0        15       173      1754
@Sumon_Early_CS_L2C         0         0         0         0         0         0         0         0         0         0         0       133
@Sumon_Early_CPLX_L2C         0         0         0         0         0         0         0         0         0         0        22       450
@Sumon_Late_stream_L2C         0         0         0         0         0         0         0         0         0         0         0         0
@Sumon_Late_CS_L2C         0         0         0         0         0         0         0         0         0         0         0         0
@Sumon_Late_CPLX_L2C         0         0         0         0         0         0         0         0         0         0         0         0
DRAM PAGES: 1048576
Allocated PAGES: 2251
