
*** ChampSim Multicore Out-of-Order Simulator ***

Warmup Instructions: 10000000
Simulation Instructions: 50000000
Number of CPUs: 1
LLC sets: 2048
LLC ways: 16
Off-chip DRAM Size: 4096 MB Channels: 1 Width: 64-bit Data Rate: 6400 MT/s
CPU 0 runs traces/clientserver/server_013.champsimtrace.xz
.xz
CPU 0 Bimodal branch predictor
BTB has LRU replacement policy
ITLB has LRU replacement policy
DTLB has LRU replacement policy
STLB has LRU replacement policy
L1I has LRU replacement policy
IP Table Entries: 256
L1D has LRU replacement policy
IP_Table L2 entries: 256
L2C has LRU replacement policy
Initialize DRRIP state for LLC
Heartbeat CPU 0 instructions: 10000000 cycles: 2775771 heartbeat IPC: 3.6026 cumulative IPC: 3.6026 (Simulation time: 0 hr 16 min 10 sec) 

Warmup complete CPU 0 instructions: 10000004 cycles: 2775772 (Simulation time: 0 hr 16 min 10 sec) 

Heartbeat CPU 0 instructions: 20000001 cycles: 24019549 heartbeat IPC: 0.470726 cumulative IPC: 0.470726 (Simulation time: 0 hr 32 min 33 sec) 
Heartbeat CPU 0 instructions: 30000002 cycles: 45079148 heartbeat IPC: 0.474843 cumulative IPC: 0.472775 (Simulation time: 0 hr 49 min 19 sec) 
Heartbeat CPU 0 instructions: 40000002 cycles: 66052043 heartbeat IPC: 0.476806 cumulative IPC: 0.474111 (Simulation time: 1 hr 5 min 48 sec) 
Heartbeat CPU 0 instructions: 50000000 cycles: 87585967 heartbeat IPC: 0.464383 cumulative IPC: 0.471641 (Simulation time: 1 hr 22 min 29 sec) 
Heartbeat CPU 0 instructions: 60000000 cycles: 108756375 heartbeat IPC: 0.472357 cumulative IPC: 0.471784 (Simulation time: 1 hr 38 min 40 sec) 
Finished CPU 0 instructions: 50000001 cycles: 105980619 cumulative IPC: 0.471784 (Simulation time: 1 hr 38 min 40 sec) 

ChampSim completed all CPUs

Region of Interest Statistics

CPU 0 cumulative IPC: 0.471784 instructions: 50000001 cycles: 105980619
ITLB TOTAL     ACCESS:    7867951  HIT:    7667468  MISS:     200483  HIT %:    97.4519  MISS %:     2.5481   MPKI: 4.00966
ITLB LOAD TRANSLATION ACCESS:    7867951  HIT:    7667468  MISS:     200483  HIT %:    97.4519  MISS %:     2.5481   MPKI: 4.00966
ITLB PREFETCH  REQUESTED:          0  ISSUED:          0  USEFUL:          0  USELESS:          0
ITLB USEFUL LOAD PREFETCHES:          0 PREFETCH ISSUED TO LOWER LEVEL:          0  ACCURACY: -nan
ITLB TIMELY PREFETCHES:          0 LATE PREFETCHES: 0 DROPPED PREFETCHES: 0
ITLB PREFETCHES SAME FILL-ORIGIN LEVEL: 0 DIFFERENT FILL-ORIGIN LEVEL: 0
ITLB AVERAGE MISS LATENCY: 18.06 cycles
ITLB RQ	ACCESS:    9664461	FORWARD:          0	MERGED:    1744088	TO_CACHE:    7920373

DTLB TOTAL     ACCESS:   10055628  HIT:    9394725  MISS:     660903  HIT %:    93.4275  MISS %:    6.57247   MPKI: 13.2181
DTLB LOAD TRANSLATION ACCESS:   10055628  HIT:    9394725  MISS:     660903  HIT %:    93.4275  MISS %:    6.57247   MPKI: 13.2181
DTLB PREFETCH  REQUESTED:          0  ISSUED:          0  USEFUL:          0  USELESS:          0
DTLB USEFUL LOAD PREFETCHES:          0 PREFETCH ISSUED TO LOWER LEVEL:          0  ACCURACY: -nan
DTLB TIMELY PREFETCHES:          0 LATE PREFETCHES: 0 DROPPED PREFETCHES: 0
DTLB PREFETCHES SAME FILL-ORIGIN LEVEL: 0 DIFFERENT FILL-ORIGIN LEVEL: 0
DTLB AVERAGE MISS LATENCY: 15.1552 cycles
DTLB RQ	ACCESS:   12406989	FORWARD:          0	MERGED:    2313408	TO_CACHE:   10093581

STLB TOTAL     ACCESS:    1047813  HIT:     927126  MISS:     120687  HIT %:     88.482  MISS %:     11.518   MPKI: 2.41374
STLB LOAD TRANSLATION ACCESS:     861386  HIT:     740699  MISS:     120687  HIT %:    85.9892  MISS %:    14.0108   MPKI: 2.41374
STLB TRANSLATION FROM L1D PREFETCHER ACCESS:     186427  HIT:     186427  MISS:          0  HIT %:        100  MISS %:          0   MPKI: 0
STLB PREFETCH  REQUESTED:          0  ISSUED:          0  USEFUL:          0  USELESS:          0
STLB USEFUL LOAD PREFETCHES:          0 PREFETCH ISSUED TO LOWER LEVEL:          0  ACCURACY: -nan
STLB TIMELY PREFETCHES:          0 LATE PREFETCHES: 0 DROPPED PREFETCHES: 0
STLB PREFETCHES SAME FILL-ORIGIN LEVEL: 0 DIFFERENT FILL-ORIGIN LEVEL: 0
STLB AVERAGE MISS LATENCY: 48.6077 cycles
STLB RQ	ACCESS:    1097716	FORWARD:          0	MERGED:      49903	TO_CACHE:    1047813

STLB Hit, L1D data hit: 0
STLB Hit, L2C data hit: 0
STLB Hit, LLC data hit: 0
STLB Hit, LLC data miss: 0
STLB STLB hints to L2: 0
L1D TOTAL     ACCESS:   12496631  HIT:   11763496  MISS:     733135  HIT %:    94.1333  MISS %:    5.86666   MPKI: 14.6627
L1D LOAD      ACCESS:    7273180  HIT:    6727318  MISS:     545862  HIT %:    92.4949  MISS %:    7.50514   MPKI: 10.9172
L1D RFO       ACCESS:    5002601  HIT:    4912201  MISS:      90400  HIT %:    98.1929  MISS %:    1.80706   MPKI: 1.808
L1D PREFETCH  ACCESS:     220850  HIT:     123977  MISS:      96873  HIT %:    56.1363  MISS %:    43.8637   MPKI: 1.93746
L1D PREFETCH  REQUESTED:     472949  ISSUED:     472787  USEFUL:      28197  USELESS:      68591
L1D USEFUL LOAD PREFETCHES:      28197 PREFETCH ISSUED TO LOWER LEVEL:     103779  ACCURACY: 27.1702
L1D TIMELY PREFETCHES:      28197 LATE PREFETCHES: 6712 DROPPED PREFETCHES: 0
L1D PREFETCHES SAME FILL-ORIGIN LEVEL: 103779 DIFFERENT FILL-ORIGIN LEVEL: 0
L1D AVERAGE MISS LATENCY: 516525 cycles
L1D RQ	ACCESS:   10678349	FORWARD:          0	MERGED:    3293798	TO_CACHE:    7301718
L1D WQ	ACCESS:    5192932	FORWARD:      82960	MERGED:      87661	TO_CACHE:    5105271
L1D PQ	ACCESS:     236457	FORWARD:          0	MERGED:          0	TO_CACHE:     236330

L1D UNIQUE REGIONS ACCESSED: 0
L1D REGIONS CONFLICTS: 0
L1D Cross Page Prefetch Requests: 0
L1D Same Page Prefetch Requests: 287813
L1D ROI Sum of L1D PQ occupancy: 3163835
L1D PREFETCHES PUSHED FROM L2C: 0
L1I TOTAL     ACCESS:    9219807  HIT:    7867333  MISS:    1352474  HIT %:    85.3308  MISS %:    14.6692   MPKI: 27.0495
L1I LOAD      ACCESS:    9219807  HIT:    7867333  MISS:    1352474  HIT %:    85.3308  MISS %:    14.6692   MPKI: 27.0495
L1I PREFETCH  REQUESTED:          0  ISSUED:          0  USEFUL:          0  USELESS:          0
L1I USEFUL LOAD PREFETCHES:          0 PREFETCH ISSUED TO LOWER LEVEL:          0  ACCURACY: -nan
L1I TIMELY PREFETCHES:          0 LATE PREFETCHES: 0 DROPPED PREFETCHES: 0
L1I PREFETCHES SAME FILL-ORIGIN LEVEL: 0 DIFFERENT FILL-ORIGIN LEVEL: 0
L1I AVERAGE MISS LATENCY: 31.1659 cycles
L1I RQ	ACCESS:   13829845	FORWARD:          0	MERGED:    4165384	TO_CACHE:    9664461

BTB TOTAL     ACCESS:    4435084  HIT:    3605586  MISS:     829498  HIT %:    81.2969  MISS %:    18.7031   MPKI: 16.59
BTB BRANCH_DIRECT_JUMP	ACCESS:     460299  HIT:     393852  MISS:      66447
BTB BRANCH_INDIRECT	ACCESS:     145929  HIT:     112911  MISS:      33018
BTB BRANCH_CONDITIONAL	ACCESS:    2139896  HIT:    1862301  MISS:     277595
BTB BRANCH_DIRECT_CALL	ACCESS:     662481  HIT:     536156  MISS:     126325
BTB BRANCH_INDIRECT_CALL	ACCESS:     164978  HIT:     152164  MISS:      12814
BTB BRANCH_RETURN	ACCESS:     861501  HIT:     548202  MISS:     313299
BTB BRANCH_OTHER ACCESS:          0  HIT:          0  MISS:          0

L2C TOTAL     ACCESS:    2935350  HIT:    1505650  MISS:    1429700  HIT %:    51.2937  MISS %:    48.7063   MPKI: 28.594
L2C LOAD      ACCESS:    1891599  HIT:     897620  MISS:     993979  HIT %:     47.453  MISS %:     52.547   MPKI: 19.8796
L2C DATA LOAD MPKI: 5.35694
L2C INSTRUCTION LOAD MPKI: 14.5226
L2C RFO       ACCESS:      90189  HIT:      38723  MISS:      51466  HIT %:    42.9354  MISS %:    57.0646   MPKI: 1.02932
L2C PREFETCH  ACCESS:     537476  HIT:     230965  MISS:     306511  HIT %:    42.9722  MISS %:    57.0278   MPKI: 6.13022
L2C DATA PREFETCH MPKI: 6.13022
L2C INSTRUCTION PREFETCH MPKI: 0
L2C WRITEBACK ACCESS:     263140  HIT:     259410  MISS:       3730  HIT %:    98.5825  MISS %:     1.4175   MPKI: 0.0746
L2C LOAD TRANSLATION ACCESS:     152946  HIT:      78932  MISS:      74014  HIT %:    51.6078  MISS %:    48.3922   MPKI: 1.48028
L2C PREFETCH  REQUESTED:     463799  ISSUED:     463799  USEFUL:      78222  USELESS:     228322
L2C USEFUL LOAD PREFETCHES:      78222 PREFETCH ISSUED TO LOWER LEVEL:     313051  ACCURACY: 24.987
L2C TIMELY PREFETCHES:      78222 LATE PREFETCHES: 6540 DROPPED PREFETCHES: 0
L2C PREFETCHES SAME FILL-ORIGIN LEVEL: 239328 DIFFERENT FILL-ORIGIN LEVEL: 0
L2C AVERAGE MISS LATENCY: 40.6239 cycles
L2C RQ	ACCESS:    2134776	FORWARD:          0	MERGED:          0	TO_CACHE:    2134734
L2C WQ	ACCESS:     263140	FORWARD:         42	MERGED:          0	TO_CACHE:     263140
L2C PQ	ACCESS:     567578	FORWARD:          0	MERGED:       5010	TO_CACHE:     562568

L2C Instructions Evicting Data 318484
L2C Translations Evicting Data 33097
L2C Data Evicting Data 276469
L2C Instructions Evicting Instructions 369734
L2C Translations Evicting Instructions 37512
L2C Data Evicting Instructions 316843
L2C Instructions Evicting Translations 37914
L2C Translations Evicting Translations 3405
L2C Data Evicting Translations 32512
L2C Dense regions hint from L2: 0
PSCL5 TOTAL     ACCESS:     120687  HIT:     120687  MISS:          0  HIT %:        100  MISS %:          0   MPKI: 0
PSCL5 LOAD TRANSLATION ACCESS:     120687  HIT:     120687  MISS:          0  HIT %:        100  MISS %:          0   MPKI: 0
PSCL5 PREFETCH  REQUESTED:          0  ISSUED:          0  USEFUL:          0  USELESS:          0
PSCL5 USEFUL LOAD PREFETCHES:          0 PREFETCH ISSUED TO LOWER LEVEL:          0  ACCURACY: -nan
PSCL5 TIMELY PREFETCHES:          0 LATE PREFETCHES: 0 DROPPED PREFETCHES: 0
PSCL5 PREFETCHES SAME FILL-ORIGIN LEVEL: 0 DIFFERENT FILL-ORIGIN LEVEL: 0

PSCL4 TOTAL     ACCESS:     113253  HIT:     112920  MISS:        333  HIT %:     99.706  MISS %:   0.294032   MPKI: 0.00666
PSCL4 LOAD TRANSLATION ACCESS:     113253  HIT:     112920  MISS:        333  HIT %:     99.706  MISS %:   0.294032   MPKI: 0.00666
PSCL4 PREFETCH  REQUESTED:          0  ISSUED:          0  USEFUL:          0  USELESS:          0
PSCL4 USEFUL LOAD PREFETCHES:          0 PREFETCH ISSUED TO LOWER LEVEL:          0  ACCURACY: -nan
PSCL4 TIMELY PREFETCHES:          0 LATE PREFETCHES: 0 DROPPED PREFETCHES: 0
PSCL4 PREFETCHES SAME FILL-ORIGIN LEVEL: 0 DIFFERENT FILL-ORIGIN LEVEL: 0

PSCL3 TOTAL     ACCESS:     119819  HIT:     118802  MISS:       1017  HIT %:    99.1512  MISS %:    0.84878   MPKI: 0.02034
PSCL3 LOAD TRANSLATION ACCESS:     119819  HIT:     118802  MISS:       1017  HIT %:    99.1512  MISS %:    0.84878   MPKI: 0.02034
PSCL3 PREFETCH  REQUESTED:          0  ISSUED:          0  USEFUL:          0  USELESS:          0
PSCL3 USEFUL LOAD PREFETCHES:          0 PREFETCH ISSUED TO LOWER LEVEL:          0  ACCURACY: -nan
PSCL3 TIMELY PREFETCHES:          0 LATE PREFETCHES: 0 DROPPED PREFETCHES: 0
PSCL3 PREFETCHES SAME FILL-ORIGIN LEVEL: 0 DIFFERENT FILL-ORIGIN LEVEL: 0

PSCL2 TOTAL     ACCESS:     120687  HIT:      89678  MISS:      31009  HIT %:    74.3063  MISS %:    25.6937   MPKI: 0.62018
PSCL2 LOAD TRANSLATION ACCESS:     120687  HIT:      89678  MISS:      31009  HIT %:    74.3063  MISS %:    25.6937   MPKI: 0.62018
PSCL2 PREFETCH  REQUESTED:          0  ISSUED:          0  USEFUL:          0  USELESS:          0
PSCL2 USEFUL LOAD PREFETCHES:          0 PREFETCH ISSUED TO LOWER LEVEL:          0  ACCURACY: -nan
PSCL2 TIMELY PREFETCHES:          0 LATE PREFETCHES: 0 DROPPED PREFETCHES: 0
PSCL2 PREFETCHES SAME FILL-ORIGIN LEVEL: 0 DIFFERENT FILL-ORIGIN LEVEL: 0

LLC TOTAL     ACCESS:    1598777  HIT:    1501084  MISS:      97693  HIT %:    93.8895  MISS %:    6.11048   MPKI: 1.95386
LLC LOAD      ACCESS:     987614  HIT:     959436  MISS:      28178  HIT %:    97.1469  MISS %:    2.85314   MPKI: 0.56356
LLC RFO       ACCESS:      51288  HIT:      39014  MISS:      12274  HIT %:    76.0685  MISS %:    23.9315   MPKI: 0.24548
LLC PREFETCH  ACCESS:     313051  HIT:     258350  MISS:      54701  HIT %:    82.5265  MISS %:    17.4735   MPKI: 1.09402
LLC WRITEBACK ACCESS:     172810  HIT:     172168  MISS:        642  HIT %:    99.6285  MISS %:   0.371506   MPKI: 0.01284
LLC LOAD TRANSLATION ACCESS:      74014  HIT:      72116  MISS:       1898  HIT %:    97.4356  MISS %:    2.56438   MPKI: 0.03796
LLC PREFETCH  REQUESTED:          0  ISSUED:          0  USEFUL:       3754  USELESS:      50646
LLC USEFUL LOAD PREFETCHES:       3754 PREFETCH ISSUED TO LOWER LEVEL:      54701  ACCURACY: 6.86276
LLC TIMELY PREFETCHES:       3754 LATE PREFETCHES: 0 DROPPED PREFETCHES: 0
LLC PREFETCHES SAME FILL-ORIGIN LEVEL: 0 DIFFERENT FILL-ORIGIN LEVEL: 0
LLC AVERAGE MISS LATENCY: 159.378 cycles
LLC RQ	ACCESS:    1112919	FORWARD:          0	MERGED:          0	TO_CACHE:    1112916
LLC WQ	ACCESS:     172810	FORWARD:          3	MERGED:          0	TO_CACHE:     172810
LLC PQ	ACCESS:     313051	FORWARD:          0	MERGED:          0	TO_CACHE:     313051

LLC Dense regions hint to LLC: 0

RAW hits: 780263
Loads Generated: 11458610
Loads sent to L1D: 10678349
Stores Generated: 5192923
Stores sent to L1D: 5192932
Major fault: 0 Minor fault: 5304
Allocated PAGES: 5304

stream: 
stream:times selected: 432125
stream:pref_filled: 70108
stream:pref_useful: 20165
stream:pref_late: 3173
stream:misses: 5917
stream:misses_by_poll: 0

CS: 
CS:times selected: 24844
CS:pref_filled: 13728
CS:pref_useful: 9392
CS:pref_late: 3290
CS:misses: 5230
CS:misses_by_poll: 67

CPLX: 
CPLX:times selected: 403885
CPLX:pref_filled: 28854
CPLX:pref_useful: 4089
CPLX:pref_late: 412
CPLX:misses: 32314
CPLX:misses_by_poll: 2

NL_L1: 
NL:times selected: 3407
NL:pref_filled: 1187
NL:pref_useful: 97
NL:pref_late: 24
NL:misses: 336
NL:misses_by_poll: 0

total selections: 864261
total_filled: 96873
total_useful: 28197
total_late: 7309
total_polluted: 69
total_misses_after_warmup: 574402
conflicts: 2498610
Degree Incremented Times: 1
Degree Decremented Times: 176624

L1 IP Table Write Accesses: 4315743
L1 IP Table Read Accesses: 1817133
L1 RST Write Accesses: 361377
L1 RST Read Accesses: 722754
L1 CSPT Write Accesses: 361377
L1 CSPT Read Accesses: 701005
L1 RR Filter Tag Write Accesses: 236619
L1 RR Filter Tag Read Accesses: 14815923
L1 IP Table Tag Write Accesses: 7301720
L1 IP Table Tag Read Accesses: 7301720
L1 RST Tag Write Accesses: 0
L1 RST Tag Read Accesses: 3493522
L1 RR Filter Write Accesses: 0
L1 RR Filter Read Accesses: 534184
test: 120052
L2 IP Table Read Accesses: 802992
L2 IP Table Write Accesses: 1135770
L2 IP Table Tag Read Accesses: 637552
L2 IP Table Tag Write Accesses: 637552

DRAM Statistics
 CHANNEL 0
 RQ ROW_BUFFER_HIT:      16266  ROW_BUFFER_MISS:      80785
 DBUS_CONGESTED:         55
 WQ ROW_BUFFER_HIT:       7503  ROW_BUFFER_MISS:      53085  FULL:          0

 AVG_CONGESTED_CYCLE: 4
 All warmup complete: 2
Channel 0 Bank busy for read cycles: 0
Channel 0 Bank busy for write cycles: 0
Channel 0
Rank 0
0banks busy for read cycles: 90218747
0banks busy for write cycles: 31541
1banks busy for read cycles: 7061994
1banks busy for write cycles: 4109269
2banks busy for read cycles: 1804338
2banks busy for write cycles: 1124666
3banks busy for read cycles: 413004
3banks busy for write cycles: 406047
4banks busy for read cycles: 131823
4banks busy for write cycles: 210839
5banks busy for read cycles: 36800
5banks busy for write cycles: 125006
6banks busy for read cycles: 15274
6banks busy for write cycles: 89999
7banks busy for read cycles: 9447
7banks busy for write cycles: 76295
8banks busy for read cycles: 19822
8banks busy for write cycles: 95709

CPU 0 Branch Prediction Accuracy: 92.9857% MPKI: 13.0204 Average ROB Occupancy at Mispredict: 21.2335
Branch types
NOT_BRANCH: 40718329 81.4367%
BRANCH_DIRECT_JUMP: 460299 0.920598%
BRANCH_INDIRECT: 145929 0.291858%
BRANCH_CONDITIONAL: 6986158 13.9723%
BRANCH_DIRECT_CALL: 662481 1.32496%
BRANCH_INDIRECT_CALL: 164978 0.329956%
BRANCH_RETURN: 861501 1.723%
BRANCH_OTHER: 0 0%

@sumon_overall_L1D     28197      6712     68591     96873    472787    472949
@Sumon_Early_by_class_L1D     16393      6626      3301        19
@Sumon_Late_by_class_L1D      2921      3047       363        19

@Sumon_Early_by_cycle_L1D      6731      2492      5295      2011      1330      3533      1443      1388      1573      1690       561       150
@Sumon_Late_by_cycle_L1D      6006       698         8         0         0         0         0         0         0         0         0         0
@Sumon_Early_stream_L1D      3407      1763      2100      1355       825      2193      1011      1001      1120      1148       373        97
@Sumon_Early_CS_L1D      2514       161      2631       185       148       534       201       118        56        35        36         7
@Sumon_Early_CPLX_L1D       416       305       340       247       151       531       219       249       290       404       115        34
@Sumon_Late_stream_L1D      2429       487         5         0         0         0         0         0         0         0         0         0
@Sumon_Late_CS_L1D      2919       128         0         0         0         0         0         0         0         0         0         0
@Sumon_Late_CPLX_L1D       323        39         1         0         0         0         0         0         0         0         0         0
@sumon_overall_L2C     78222      6540    228322    306511    463799    463799
@Sumon_Early_by_class_L2C      1111       361       483         0
@Sumon_Late_by_class_L2C         0         0         0         0

@Sumon_Early_by_cycle_L2C     13486      8914      9254      5969      4540     11332      5476      3715      2738      3108      1958      7732
@Sumon_Late_by_cycle_L2C      4789      1745         6         0         0         0         0         0         0         0         0         0
@Sumon_Early_stream_L2C         0         0         0         0         0         0         0         0         1        12        90      1008
@Sumon_Early_CS_L2C         0         0         0         0         0         0         0         0         0         3        46       312
@Sumon_Early_CPLX_L2C         0         0         0         0         0         0         0         0         2         4        28       449
@Sumon_Late_stream_L2C         0         0         0         0         0         0         0         0         0         0         0         0
@Sumon_Late_CS_L2C         0         0         0         0         0         0         0         0         0         0         0         0
@Sumon_Late_CPLX_L2C         0         0         0         0         0         0         0         0         0         0         0         0
DRAM PAGES: 1048576
Allocated PAGES: 5304
