
*** ChampSim Multicore Out-of-Order Simulator ***

Warmup Instructions: 10000000
Simulation Instructions: 50000000
Number of CPUs: 1
LLC sets: 2048
LLC ways: 16
Off-chip DRAM Size: 4096 MB Channels: 1 Width: 64-bit Data Rate: 6400 MT/s
CPU 0 runs traces/clientserver/server_029.champsimtrace.xz
.xz
CPU 0 Bimodal branch predictor
BTB has LRU replacement policy
ITLB has LRU replacement policy
DTLB has LRU replacement policy
STLB has LRU replacement policy
L1I has LRU replacement policy
IP Table Entries: 256
L1D has LRU replacement policy
IP_Table L2 entries: 256
L2C has LRU replacement policy
Initialize DRRIP state for LLC
Heartbeat CPU 0 instructions: 10000003 cycles: 2890096 heartbeat IPC: 3.46009 cumulative IPC: 3.46009 (Simulation time: 0 hr 17 min 38 sec) 

Warmup complete CPU 0 instructions: 10000003 cycles: 2890096 (Simulation time: 0 hr 17 min 38 sec) 

Heartbeat CPU 0 instructions: 20000000 cycles: 28323941 heartbeat IPC: 0.393177 cumulative IPC: 0.393177 (Simulation time: 0 hr 35 min 8 sec) 
Heartbeat CPU 0 instructions: 30000000 cycles: 53643184 heartbeat IPC: 0.394957 cumulative IPC: 0.394065 (Simulation time: 0 hr 52 min 22 sec) 
Heartbeat CPU 0 instructions: 40000001 cycles: 79218598 heartbeat IPC: 0.391001 cumulative IPC: 0.393038 (Simulation time: 1 hr 9 min 55 sec) 
Heartbeat CPU 0 instructions: 50000000 cycles: 104773849 heartbeat IPC: 0.391309 cumulative IPC: 0.392604 (Simulation time: 1 hr 27 min 22 sec) 
Heartbeat CPU 0 instructions: 60000000 cycles: 130429304 heartbeat IPC: 0.389781 cumulative IPC: 0.392036 (Simulation time: 1 hr 41 min 58 sec) 
Finished CPU 0 instructions: 50000000 cycles: 127539209 cumulative IPC: 0.392036 (Simulation time: 1 hr 41 min 58 sec) 

ChampSim completed all CPUs

Region of Interest Statistics

CPU 0 cumulative IPC: 0.392036 instructions: 50000000 cycles: 127539209
ITLB TOTAL     ACCESS:    8707343  HIT:    8174355  MISS:     532988  HIT %:    93.8789  MISS %:    6.12113   MPKI: 10.6598
ITLB LOAD TRANSLATION ACCESS:    8707343  HIT:    8174355  MISS:     532988  HIT %:    93.8789  MISS %:    6.12113   MPKI: 10.6598
ITLB PREFETCH  REQUESTED:          0  ISSUED:          0  USEFUL:          0  USELESS:          0
ITLB USEFUL LOAD PREFETCHES:          0 PREFETCH ISSUED TO LOWER LEVEL:          0  ACCURACY: -nan
ITLB TIMELY PREFETCHES:          0 LATE PREFETCHES: 0 DROPPED PREFETCHES: 0
ITLB PREFETCHES SAME FILL-ORIGIN LEVEL: 0 DIFFERENT FILL-ORIGIN LEVEL: 0
ITLB AVERAGE MISS LATENCY: 9.22419 cycles
ITLB RQ	ACCESS:   10374117	FORWARD:          0	MERGED:    1532581	TO_CACHE:    8841536

DTLB TOTAL     ACCESS:   12259393  HIT:   11714924  MISS:     544469  HIT %:    95.5588  MISS %:    4.44124   MPKI: 10.8894
DTLB LOAD TRANSLATION ACCESS:   12259393  HIT:   11714924  MISS:     544469  HIT %:    95.5588  MISS %:    4.44124   MPKI: 10.8894
DTLB PREFETCH  REQUESTED:          0  ISSUED:          0  USEFUL:          0  USELESS:          0
DTLB USEFUL LOAD PREFETCHES:          0 PREFETCH ISSUED TO LOWER LEVEL:          0  ACCURACY: -nan
DTLB TIMELY PREFETCHES:          0 LATE PREFETCHES: 0 DROPPED PREFETCHES: 0
DTLB PREFETCHES SAME FILL-ORIGIN LEVEL: 0 DIFFERENT FILL-ORIGIN LEVEL: 0
DTLB AVERAGE MISS LATENCY: 11.8361 cycles
DTLB RQ	ACCESS:   15370747	FORWARD:          0	MERGED:    3091559	TO_CACHE:   12279188

STLB TOTAL     ACCESS:    1603548  HIT:    1589752  MISS:      13796  HIT %:    99.1397  MISS %:   0.860342   MPKI: 0.27592
STLB LOAD TRANSLATION ACCESS:    1077457  HIT:    1063661  MISS:      13796  HIT %:    98.7196  MISS %:    1.28042   MPKI: 0.27592
STLB TRANSLATION FROM L1D PREFETCHER ACCESS:     526091  HIT:     526091  MISS:          0  HIT %:        100  MISS %:          0   MPKI: 0
STLB PREFETCH  REQUESTED:          0  ISSUED:          0  USEFUL:          0  USELESS:          0
STLB USEFUL LOAD PREFETCHES:          0 PREFETCH ISSUED TO LOWER LEVEL:          0  ACCURACY: -nan
STLB TIMELY PREFETCHES:          0 LATE PREFETCHES: 0 DROPPED PREFETCHES: 0
STLB PREFETCHES SAME FILL-ORIGIN LEVEL: 0 DIFFERENT FILL-ORIGIN LEVEL: 0
STLB AVERAGE MISS LATENCY: 119.613 cycles
STLB RQ	ACCESS:    1979479	FORWARD:          0	MERGED:     375932	TO_CACHE:    1603547

STLB Hit, L1D data hit: 0
STLB Hit, L2C data hit: 0
STLB Hit, LLC data hit: 0
STLB Hit, LLC data miss: 0
STLB STLB hints to L2: 0
L1D TOTAL     ACCESS:   15693491  HIT:   13942869  MISS:    1750622  HIT %:    88.8449  MISS %:    11.1551   MPKI: 35.0124
L1D LOAD      ACCESS:    8604770  HIT:    7676511  MISS:     928259  HIT %:    89.2123  MISS %:    10.7877   MPKI: 18.5652
L1D RFO       ACCESS:    6260428  HIT:    5956764  MISS:     303664  HIT %:    95.1495  MISS %:    4.85053   MPKI: 6.07328
L1D PREFETCH  ACCESS:     828293  HIT:     309594  MISS:     518699  HIT %:    37.3774  MISS %:    62.6226   MPKI: 10.374
L1D PREFETCH  REQUESTED:    1804402  ISSUED:    1804396  USEFUL:     258748  USELESS:     259885
L1D USEFUL LOAD PREFETCHES:     258748 PREFETCH ISSUED TO LOWER LEVEL:     571072  ACCURACY: 45.3092
L1D TIMELY PREFETCHES:     258748 LATE PREFETCHES: 52232 DROPPED PREFETCHES: 0
L1D PREFETCHES SAME FILL-ORIGIN LEVEL: 571072 DIFFERENT FILL-ORIGIN LEVEL: 0
L1D AVERAGE MISS LATENCY: 1.99481e+06 cycles
L1D RQ	ACCESS:   11744808	FORWARD:          0	MERGED:    2975493	TO_CACHE:    8653956
L1D WQ	ACCESS:    6762648	FORWARD:     115711	MERGED:      45857	TO_CACHE:    6716791
L1D PQ	ACCESS:     902374	FORWARD:          0	MERGED:          0	TO_CACHE:     902022

L1D UNIQUE REGIONS ACCESSED: 0
L1D REGIONS CONFLICTS: 0
L1D Cross Page Prefetch Requests: 0
L1D Same Page Prefetch Requests: 1072545
L1D ROI Sum of L1D PQ occupancy: 11613987
L1D PREFETCHES PUSHED FROM L2C: 0
L1I TOTAL     ACCESS:    9848305  HIT:    6944578  MISS:    2903727  HIT %:    70.5155  MISS %:    29.4845   MPKI: 58.0745
L1I LOAD      ACCESS:    9848305  HIT:    6944578  MISS:    2903727  HIT %:    70.5155  MISS %:    29.4845   MPKI: 58.0745
L1I PREFETCH  REQUESTED:          0  ISSUED:          0  USEFUL:          0  USELESS:          0
L1I USEFUL LOAD PREFETCHES:          0 PREFETCH ISSUED TO LOWER LEVEL:          0  ACCURACY: -nan
L1I TIMELY PREFETCHES:          0 LATE PREFETCHES: 0 DROPPED PREFETCHES: 0
L1I PREFETCHES SAME FILL-ORIGIN LEVEL: 0 DIFFERENT FILL-ORIGIN LEVEL: 0
L1I AVERAGE MISS LATENCY: 18.7174 cycles
L1I RQ	ACCESS:   13977462	FORWARD:          0	MERGED:    3603345	TO_CACHE:   10374117

BTB TOTAL     ACCESS:    6134173  HIT:    4300136  MISS:    1834037  HIT %:    70.1013  MISS %:    29.8987   MPKI: 36.6807
BTB BRANCH_DIRECT_JUMP	ACCESS:     525618  HIT:     378588  MISS:     147030
BTB BRANCH_INDIRECT	ACCESS:     166508  HIT:     130989  MISS:      35519
BTB BRANCH_CONDITIONAL	ACCESS:    3093622  HIT:    2589788  MISS:     503834
BTB BRANCH_DIRECT_CALL	ACCESS:     988709  HIT:     629772  MISS:     358937
BTB BRANCH_INDIRECT_CALL	ACCESS:     185503  HIT:     117008  MISS:      68495
BTB BRANCH_RETURN	ACCESS:    1174213  HIT:     453991  MISS:     720222
BTB BRANCH_OTHER ACCESS:          0  HIT:          0  MISS:          0

L2C TOTAL     ACCESS:    6234596  HIT:    5277187  MISS:     957409  HIT %:    84.6436  MISS %:    15.3564   MPKI: 19.1482
L2C LOAD      ACCESS:    3779747  HIT:    3187410  MISS:     592337  HIT %:    84.3287  MISS %:    15.6713   MPKI: 11.8467
L2C DATA LOAD MPKI: 3.02468
L2C INSTRUCTION LOAD MPKI: 8.82206
L2C RFO       ACCESS:     303523  HIT:     220911  MISS:      82612  HIT %:    72.7823  MISS %:    27.2177   MPKI: 1.65224
L2C PREFETCH  ACCESS:    1528091  HIT:    1263805  MISS:     264286  HIT %:    82.7048  MISS %:    17.2952   MPKI: 5.28572
L2C DATA PREFETCH MPKI: 5.28572
L2C INSTRUCTION PREFETCH MPKI: 0
L2C WRITEBACK ACCESS:     602419  HIT:     598437  MISS:       3982  HIT %:     99.339  MISS %:   0.661002   MPKI: 0.07964
L2C LOAD TRANSLATION ACCESS:      20816  HIT:       6624  MISS:      14192  HIT %:    31.8217  MISS %:    68.1783   MPKI: 0.28384
L2C PREFETCH  REQUESTED:    1027724  ISSUED:    1027724  USEFUL:      30711  USELESS:     233375
L2C USEFUL LOAD PREFETCHES:      30711 PREFETCH ISSUED TO LOWER LEVEL:     269805  ACCURACY: 11.3827
L2C TIMELY PREFETCHES:      30711 LATE PREFETCHES: 5519 DROPPED PREFETCHES: 0
L2C PREFETCHES SAME FILL-ORIGIN LEVEL: 124904 DIFFERENT FILL-ORIGIN LEVEL: 0
L2C AVERAGE MISS LATENCY: 41.755 cycles
L2C RQ	ACCESS:    4104090	FORWARD:          0	MERGED:          0	TO_CACHE:    4104084
L2C WQ	ACCESS:     602419	FORWARD:          6	MERGED:          0	TO_CACHE:     602419
L2C PQ	ACCESS:    1598796	FORWARD:          0	MERGED:      46717	TO_CACHE:    1552079

L2C Instructions Evicting Data 202717
L2C Translations Evicting Data 10607
L2C Data Evicting Data 287785
L2C Instructions Evicting Instructions 235021
L2C Translations Evicting Instructions 2990
L2C Data Evicting Instructions 200165
L2C Instructions Evicting Translations 3365
L2C Translations Evicting Translations 595
L2C Data Evicting Translations 10182
L2C Dense regions hint from L2: 0
PSCL5 TOTAL     ACCESS:      13796  HIT:      13796  MISS:          0  HIT %:        100  MISS %:          0   MPKI: 0
PSCL5 LOAD TRANSLATION ACCESS:      13796  HIT:      13796  MISS:          0  HIT %:        100  MISS %:          0   MPKI: 0
PSCL5 PREFETCH  REQUESTED:          0  ISSUED:          0  USEFUL:          0  USELESS:          0
PSCL5 USEFUL LOAD PREFETCHES:          0 PREFETCH ISSUED TO LOWER LEVEL:          0  ACCURACY: -nan
PSCL5 TIMELY PREFETCHES:          0 LATE PREFETCHES: 0 DROPPED PREFETCHES: 0
PSCL5 PREFETCHES SAME FILL-ORIGIN LEVEL: 0 DIFFERENT FILL-ORIGIN LEVEL: 0

PSCL4 TOTAL     ACCESS:      13493  HIT:      13320  MISS:        173  HIT %:    98.7179  MISS %:    1.28215   MPKI: 0.00346
PSCL4 LOAD TRANSLATION ACCESS:      13493  HIT:      13320  MISS:        173  HIT %:    98.7179  MISS %:    1.28215   MPKI: 0.00346
PSCL4 PREFETCH  REQUESTED:          0  ISSUED:          0  USEFUL:          0  USELESS:          0
PSCL4 USEFUL LOAD PREFETCHES:          0 PREFETCH ISSUED TO LOWER LEVEL:          0  ACCURACY: -nan
PSCL4 TIMELY PREFETCHES:          0 LATE PREFETCHES: 0 DROPPED PREFETCHES: 0
PSCL4 PREFETCHES SAME FILL-ORIGIN LEVEL: 0 DIFFERENT FILL-ORIGIN LEVEL: 0

PSCL3 TOTAL     ACCESS:      13761  HIT:      13588  MISS:        173  HIT %:    98.7428  MISS %:    1.25718   MPKI: 0.00346
PSCL3 LOAD TRANSLATION ACCESS:      13761  HIT:      13588  MISS:        173  HIT %:    98.7428  MISS %:    1.25718   MPKI: 0.00346
PSCL3 PREFETCH  REQUESTED:          0  ISSUED:          0  USEFUL:          0  USELESS:          0
PSCL3 USEFUL LOAD PREFETCHES:          0 PREFETCH ISSUED TO LOWER LEVEL:          0  ACCURACY: -nan
PSCL3 TIMELY PREFETCHES:          0 LATE PREFETCHES: 0 DROPPED PREFETCHES: 0
PSCL3 PREFETCHES SAME FILL-ORIGIN LEVEL: 0 DIFFERENT FILL-ORIGIN LEVEL: 0

PSCL2 TOTAL     ACCESS:      13796  HIT:       7115  MISS:       6681  HIT %:    51.5729  MISS %:    48.4271   MPKI: 0.13362
PSCL2 LOAD TRANSLATION ACCESS:      13796  HIT:       7115  MISS:       6681  HIT %:    51.5729  MISS %:    48.4271   MPKI: 0.13362
PSCL2 PREFETCH  REQUESTED:          0  ISSUED:          0  USEFUL:          0  USELESS:          0
PSCL2 USEFUL LOAD PREFETCHES:          0 PREFETCH ISSUED TO LOWER LEVEL:          0  ACCURACY: -nan
PSCL2 TIMELY PREFETCHES:          0 LATE PREFETCHES: 0 DROPPED PREFETCHES: 0
PSCL2 PREFETCHES SAME FILL-ORIGIN LEVEL: 0 DIFFERENT FILL-ORIGIN LEVEL: 0

LLC TOTAL     ACCESS:    1107375  HIT:    1032565  MISS:      74810  HIT %:    93.2444  MISS %:    6.75562   MPKI: 1.4962
LLC LOAD      ACCESS:     587183  HIT:     569671  MISS:      17512  HIT %:    97.0176  MISS %:    2.98238   MPKI: 0.35024
LLC RFO       ACCESS:      82245  HIT:      79220  MISS:       3025  HIT %:     96.322  MISS %:    3.67804   MPKI: 0.0605
LLC PREFETCH  ACCESS:     269805  HIT:     218380  MISS:      51425  HIT %:    80.9399  MISS %:    19.0601   MPKI: 1.0285
LLC WRITEBACK ACCESS:     153950  HIT:     153751  MISS:        199  HIT %:    99.8707  MISS %:   0.129263   MPKI: 0.00398
LLC LOAD TRANSLATION ACCESS:      14192  HIT:      11543  MISS:       2649  HIT %:    81.3346  MISS %:    18.6654   MPKI: 0.05298
LLC PREFETCH  REQUESTED:          0  ISSUED:          0  USEFUL:       2063  USELESS:      46877
LLC USEFUL LOAD PREFETCHES:       2063 PREFETCH ISSUED TO LOWER LEVEL:      51425  ACCURACY: 4.01167
LLC TIMELY PREFETCHES:       2063 LATE PREFETCHES: 0 DROPPED PREFETCHES: 0
LLC PREFETCHES SAME FILL-ORIGIN LEVEL: 0 DIFFERENT FILL-ORIGIN LEVEL: 0
LLC AVERAGE MISS LATENCY: 151.257 cycles
LLC RQ	ACCESS:     683623	FORWARD:          0	MERGED:          0	TO_CACHE:     683621
LLC WQ	ACCESS:     153950	FORWARD:          2	MERGED:          0	TO_CACHE:     153950
LLC PQ	ACCESS:     269805	FORWARD:          0	MERGED:          0	TO_CACHE:     269805

LLC Dense regions hint to LLC: 0

RAW hits: 551783
Loads Generated: 12296591
Loads sent to L1D: 11744808
Stores Generated: 6762648
Stores sent to L1D: 6762648
Major fault: 0 Minor fault: 5445
Allocated PAGES: 5445

stream: 
stream:times selected: 1060526
stream:pref_filled: 122120
stream:pref_useful: 22601
stream:pref_late: 27559
stream:misses: 15411
stream:misses_by_poll: 0

CS: 
CS:times selected: 166350
CS:pref_filled: 118908
CS:pref_useful: 101683
CS:pref_late: 3401
CS:misses: 8512
CS:misses_by_poll: 116

CPLX: 
CPLX:times selected: 890716
CPLX:pref_filled: 372514
CPLX:pref_useful: 183231
CPLX:pref_late: 11251
CPLX:misses: 129333
CPLX:misses_by_poll: 221

NL_L1: 
NL:times selected: 2301
NL:pref_filled: 330
NL:pref_useful: 28
NL:pref_late: 8
NL:misses: 119
NL:misses_by_poll: 0

total selections: 2119893
total_filled: 518699
total_useful: 258748
total_late: 56901
total_polluted: 337
total_misses_after_warmup: 977445
conflicts: 3278586
Degree Incremented Times: 41698
Degree Decremented Times: 151928

L1 IP Table Write Accesses: 5102284
L1 IP Table Read Accesses: 1823698
L1 RST Write Accesses: 882280
L1 RST Read Accesses: 1764560
L1 CSPT Write Accesses: 882280
L1 CSPT Read Accesses: 2944233
L1 RR Filter Tag Write Accesses: 902380
L1 RR Filter Tag Read Accesses: 69510361
L1 IP Table Tag Write Accesses: 8653956
L1 IP Table Tag Read Accesses: 8653956
L1 RST Tag Write Accesses: 0
L1 RST Tag Read Accesses: 6984898
L1 RR Filter Write Accesses: 0
L1 RR Filter Read Accesses: 2463739
test: 165978
L2 IP Table Read Accesses: 2074852
L2 IP Table Write Accesses: 2612676
L2 IP Table Tag Read Accesses: 1422700
L2 IP Table Tag Write Accesses: 1422700

DRAM Statistics
 CHANNEL 0
 RQ ROW_BUFFER_HIT:      21793  ROW_BUFFER_MISS:      52817
 DBUS_CONGESTED:         37
 WQ ROW_BUFFER_HIT:        784  ROW_BUFFER_MISS:       2957  FULL:          0

 AVG_CONGESTED_CYCLE: 4
 All warmup complete: 2
Channel 0 Bank busy for read cycles: 0
Channel 0 Bank busy for write cycles: 0
Channel 0
Rank 0
0banks busy for read cycles: 122738576
0banks busy for write cycles: 2258
1banks busy for read cycles: 1819975
1banks busy for write cycles: 388612
2banks busy for read cycles: 1156701
2banks busy for write cycles: 113324
3banks busy for read cycles: 602702
3banks busy for write cycles: 43697
4banks busy for read cycles: 342485
4banks busy for write cycles: 16804
5banks busy for read cycles: 178175
5banks busy for write cycles: 6940
6banks busy for read cycles: 78874
6banks busy for write cycles: 1856
7banks busy for read cycles: 31799
7banks busy for write cycles: 1907
8banks busy for read cycles: 14297
8banks busy for write cycles: 228

CPU 0 Branch Prediction Accuracy: 92.2332% MPKI: 14.6271 Average ROB Occupancy at Mispredict: 19.2108
Branch types
NOT_BRANCH: 40583274 81.1665%
BRANCH_DIRECT_JUMP: 525618 1.05124%
BRANCH_INDIRECT: 166508 0.333016%
BRANCH_CONDITIONAL: 6375895 12.7518%
BRANCH_DIRECT_CALL: 988709 1.97742%
BRANCH_INDIRECT_CALL: 185503 0.371006%
BRANCH_RETURN: 1174213 2.34843%
BRANCH_OTHER: 0 0%

@sumon_overall_L1D    258748     52232    259885    518699   1804396   1804402
@Sumon_Early_by_class_L1D     17533     93691    146762         3
@Sumon_Late_by_class_L1D     26521      3113      8166         3

@Sumon_Early_by_cycle_L1D    230006      7766      2637      2740       348      3761      1758      1845      3424      3989       472         2
@Sumon_Late_by_cycle_L1D     50752      1436        44         0         0         0         0         0         0         0         0         0
@Sumon_Early_stream_L1D      6648      2637      1253       966       168      1482       642       642      1673      1381        41         0
@Sumon_Early_CS_L1D     90539      2473        65       527        30         0         0         0         9        48         0         0
@Sumon_Early_CPLX_L1D    132588      2529      1300      1245       145      2263       979      1172      1697      2412       430         2
@Sumon_Late_stream_L1D     25500       987        34         0         0         0         0         0         0         0         0         0
@Sumon_Late_CS_L1D      2911       202         0         0         0         0         0         0         0         0         0         0
@Sumon_Late_CPLX_L1D      7964       195         7         0         0         0         0         0         0         0         0         0
@sumon_overall_L2C     30711      5519    233375    264286   1027724   1027724
@Sumon_Early_by_class_L2C      1706       218      2038         0
@Sumon_Late_by_class_L2C         0        82         0         0

@Sumon_Early_by_cycle_L2C      5661      3247      3435      1582       705      3483      2002      2696      1127      1361      1697      3715
@Sumon_Late_by_cycle_L2C      4812       704         3         0         0         0         0         0         0         0         0         0
@Sumon_Early_stream_L2C         0         0         0         0         0         0         0         0         2       137       703       864
@Sumon_Early_CS_L2C        29        13         1         0         0         0         0         1         1         0         9       164
@Sumon_Early_CPLX_L2C         0         0         0         0         0         0         0         0         2       276       433      1327
@Sumon_Late_stream_L2C         0         0         0         0         0         0         0         0         0         0         0         0
@Sumon_Late_CS_L2C        77         5         0         0         0         0         0         0         0         0         0         0
@Sumon_Late_CPLX_L2C         0         0         0         0         0         0         0         0         0         0         0         0
DRAM PAGES: 1048576
Allocated PAGES: 5445
