
*** ChampSim Multicore Out-of-Order Simulator ***

Warmup Instructions: 10000000
Simulation Instructions: 50000000
Number of CPUs: 1
LLC sets: 2048
LLC ways: 16
Off-chip DRAM Size: 4096 MB Channels: 1 Width: 64-bit Data Rate: 6400 MT/s
CPU 0 runs traces/clientserver/server_012.champsimtrace.xz
.xz
CPU 0 Bimodal branch predictor
BTB has LRU replacement policy
ITLB has LRU replacement policy
DTLB has LRU replacement policy
STLB has LRU replacement policy
L1I has LRU replacement policy
IP Table Entries: 256
L1D has LRU replacement policy
IP_Table L2 entries: 256
L2C has LRU replacement policy
Initialize DRRIP state for LLC
Heartbeat CPU 0 instructions: 10000002 cycles: 2772737 heartbeat IPC: 3.60655 cumulative IPC: 3.60655 (Simulation time: 0 hr 15 min 53 sec) 

Warmup complete CPU 0 instructions: 10000002 cycles: 2772737 (Simulation time: 0 hr 15 min 53 sec) 

Heartbeat CPU 0 instructions: 20000002 cycles: 23548256 heartbeat IPC: 0.481336 cumulative IPC: 0.481336 (Simulation time: 0 hr 32 min 12 sec) 
Heartbeat CPU 0 instructions: 30000001 cycles: 43841498 heartbeat IPC: 0.492775 cumulative IPC: 0.486988 (Simulation time: 0 hr 48 min 39 sec) 
Heartbeat CPU 0 instructions: 40000001 cycles: 64607402 heartbeat IPC: 0.481559 cumulative IPC: 0.485165 (Simulation time: 1 hr 5 min 15 sec) 
Heartbeat CPU 0 instructions: 50000000 cycles: 84991395 heartbeat IPC: 0.490581 cumulative IPC: 0.486508 (Simulation time: 1 hr 21 min 39 sec) 
Heartbeat CPU 0 instructions: 60000000 cycles: 105207276 heartbeat IPC: 0.494661 cumulative IPC: 0.488117 (Simulation time: 1 hr 37 min 29 sec) 
Finished CPU 0 instructions: 50000002 cycles: 102434540 cumulative IPC: 0.488117 (Simulation time: 1 hr 37 min 29 sec) 

ChampSim completed all CPUs

Region of Interest Statistics

CPU 0 cumulative IPC: 0.488117 instructions: 50000002 cycles: 102434540
ITLB TOTAL     ACCESS:    7880869  HIT:    7683058  MISS:     197811  HIT %:      97.49  MISS %:    2.51002   MPKI: 3.95622
ITLB LOAD TRANSLATION ACCESS:    7880869  HIT:    7683058  MISS:     197811  HIT %:      97.49  MISS %:    2.51002   MPKI: 3.95622
ITLB PREFETCH  REQUESTED:          0  ISSUED:          0  USEFUL:          0  USELESS:          0
ITLB USEFUL LOAD PREFETCHES:          0 PREFETCH ISSUED TO LOWER LEVEL:          0  ACCURACY: -nan
ITLB TIMELY PREFETCHES:          0 LATE PREFETCHES: 0 DROPPED PREFETCHES: 0
ITLB PREFETCHES SAME FILL-ORIGIN LEVEL: 0 DIFFERENT FILL-ORIGIN LEVEL: 0
ITLB AVERAGE MISS LATENCY: 17.2342 cycles
ITLB RQ	ACCESS:    9688025	FORWARD:          0	MERGED:    1755800	TO_CACHE:    7932225

DTLB TOTAL     ACCESS:   10019886  HIT:    9376767  MISS:     643119  HIT %:    93.5816  MISS %:    6.41843   MPKI: 12.8624
DTLB LOAD TRANSLATION ACCESS:   10019886  HIT:    9376767  MISS:     643119  HIT %:    93.5816  MISS %:    6.41843   MPKI: 12.8624
DTLB PREFETCH  REQUESTED:          0  ISSUED:          0  USEFUL:          0  USELESS:          0
DTLB USEFUL LOAD PREFETCHES:          0 PREFETCH ISSUED TO LOWER LEVEL:          0  ACCURACY: -nan
DTLB TIMELY PREFETCHES:          0 LATE PREFETCHES: 0 DROPPED PREFETCHES: 0
DTLB PREFETCHES SAME FILL-ORIGIN LEVEL: 0 DIFFERENT FILL-ORIGIN LEVEL: 0
DTLB AVERAGE MISS LATENCY: 14.8145 cycles
DTLB RQ	ACCESS:   12377628	FORWARD:          0	MERGED:    2320791	TO_CACHE:   10056837

STLB TOTAL     ACCESS:    1029869  HIT:     913647  MISS:     116222  HIT %:    88.7149  MISS %:    11.2851   MPKI: 2.32444
STLB LOAD TRANSLATION ACCESS:     840930  HIT:     724708  MISS:     116222  HIT %:    86.1793  MISS %:    13.8207   MPKI: 2.32444
STLB TRANSLATION FROM L1D PREFETCHER ACCESS:     188939  HIT:     188939  MISS:          0  HIT %:        100  MISS %:          0   MPKI: 0
STLB PREFETCH  REQUESTED:          0  ISSUED:          0  USEFUL:          0  USELESS:          0
STLB USEFUL LOAD PREFETCHES:          0 PREFETCH ISSUED TO LOWER LEVEL:          0  ACCURACY: -nan
STLB TIMELY PREFETCHES:          0 LATE PREFETCHES: 0 DROPPED PREFETCHES: 0
STLB PREFETCHES SAME FILL-ORIGIN LEVEL: 0 DIFFERENT FILL-ORIGIN LEVEL: 0
STLB AVERAGE MISS LATENCY: 46.0546 cycles
STLB RQ	ACCESS:    1080298	FORWARD:          0	MERGED:      50428	TO_CACHE:    1029870

STLB Hit, L1D data hit: 0
STLB Hit, L2C data hit: 0
STLB Hit, LLC data hit: 0
STLB Hit, LLC data miss: 0
STLB STLB hints to L2: 0
L1D TOTAL     ACCESS:   12466387  HIT:   11739276  MISS:     727111  HIT %:    94.1674  MISS %:    5.83257   MPKI: 14.5422
L1D LOAD      ACCESS:    7229041  HIT:    6692356  MISS:     536685  HIT %:     92.576  MISS %:    7.42401   MPKI: 10.7337
L1D RFO       ACCESS:    5013116  HIT:    4921358  MISS:      91758  HIT %:    98.1696  MISS %:    1.83036   MPKI: 1.83516
L1D PREFETCH  ACCESS:     224230  HIT:     125562  MISS:      98668  HIT %:     55.997  MISS %:     44.003   MPKI: 1.97336
L1D PREFETCH  REQUESTED:     479001  ISSUED:     478862  USEFUL:      28657  USELESS:      70047
L1D USEFUL LOAD PREFETCHES:      28657 PREFETCH ISSUED TO LOWER LEVEL:     104882  ACCURACY: 27.3231
L1D TIMELY PREFETCHES:      28657 LATE PREFETCHES: 6083 DROPPED PREFETCHES: 0
L1D PREFETCHES SAME FILL-ORIGIN LEVEL: 104882 DIFFERENT FILL-ORIGIN LEVEL: 0
L1D AVERAGE MISS LATENCY: 471469 cycles
L1D RQ	ACCESS:   10639752	FORWARD:          0	MERGED:    3306030	TO_CACHE:    7255412
L1D WQ	ACCESS:    5207903	FORWARD:      78438	MERGED:      85687	TO_CACHE:    5122216
L1D PQ	ACCESS:     239495	FORWARD:          0	MERGED:          0	TO_CACHE:     239367

L1D UNIQUE REGIONS ACCESSED: 0
L1D REGIONS CONFLICTS: 0
L1D Cross Page Prefetch Requests: 0
L1D Same Page Prefetch Requests: 288570
L1D ROI Sum of L1D PQ occupancy: 3205125
L1D PREFETCHES PUSHED FROM L2C: 0
L1I TOTAL     ACCESS:    9266364  HIT:    7967978  MISS:    1298386  HIT %:    85.9882  MISS %:    14.0118   MPKI: 25.9677
L1I LOAD      ACCESS:    9266364  HIT:    7967978  MISS:    1298386  HIT %:    85.9882  MISS %:    14.0118   MPKI: 25.9677
L1I PREFETCH  REQUESTED:          0  ISSUED:          0  USEFUL:          0  USELESS:          0
L1I USEFUL LOAD PREFETCHES:          0 PREFETCH ISSUED TO LOWER LEVEL:          0  ACCURACY: -nan
L1I TIMELY PREFETCHES:          0 LATE PREFETCHES: 0 DROPPED PREFETCHES: 0
L1I PREFETCHES SAME FILL-ORIGIN LEVEL: 0 DIFFERENT FILL-ORIGIN LEVEL: 0
L1I AVERAGE MISS LATENCY: 29.9133 cycles
L1I RQ	ACCESS:   13855833	FORWARD:          0	MERGED:    4167808	TO_CACHE:    9688025

BTB TOTAL     ACCESS:    4469993  HIT:    3684879  MISS:     785114  HIT %:    82.4359  MISS %:    17.5641   MPKI: 15.7023
BTB BRANCH_DIRECT_JUMP	ACCESS:     461138  HIT:     398477  MISS:      62661
BTB BRANCH_INDIRECT	ACCESS:     153421  HIT:     119718  MISS:      33703
BTB BRANCH_CONDITIONAL	ACCESS:    2143626  HIT:    1887593  MISS:     256033
BTB BRANCH_DIRECT_CALL	ACCESS:     670236  HIT:     552215  MISS:     118021
BTB BRANCH_INDIRECT_CALL	ACCESS:     168700  HIT:     156363  MISS:      12337
BTB BRANCH_RETURN	ACCESS:     872872  HIT:     570513  MISS:     302359
BTB BRANCH_OTHER ACCESS:          0  HIT:          0  MISS:          0

L2C TOTAL     ACCESS:    2860492  HIT:    1552677  MISS:    1307815  HIT %:    54.2801  MISS %:    45.7199   MPKI: 26.1563
L2C LOAD      ACCESS:    1828971  HIT:     931748  MISS:     897223  HIT %:    50.9438  MISS %:    49.0562   MPKI: 17.9445
L2C DATA LOAD MPKI: 4.99392
L2C INSTRUCTION LOAD MPKI: 12.9505
L2C RFO       ACCESS:      91626  HIT:      39202  MISS:      52424  HIT %:    42.7848  MISS %:    57.2152   MPKI: 1.04848
L2C PREFETCH  ACCESS:     531903  HIT:     244687  MISS:     287216  HIT %:    46.0022  MISS %:    53.9978   MPKI: 5.74432
L2C DATA PREFETCH MPKI: 5.74432
L2C INSTRUCTION PREFETCH MPKI: 0
L2C WRITEBACK ACCESS:     260686  HIT:     257820  MISS:       2866  HIT %:    98.9006  MISS %:    1.09941   MPKI: 0.05732
L2C LOAD TRANSLATION ACCESS:     147306  HIT:      79220  MISS:      68086  HIT %:    53.7792  MISS %:    46.2208   MPKI: 1.36172
L2C PREFETCH  REQUESTED:     454144  ISSUED:     454144  USEFUL:      72918  USELESS:     214311
L2C USEFUL LOAD PREFETCHES:      72918 PREFETCH ISSUED TO LOWER LEVEL:     293441  ACCURACY: 24.8493
L2C TIMELY PREFETCHES:      72918 LATE PREFETCHES: 6225 DROPPED PREFETCHES: 0
L2C PREFETCHES SAME FILL-ORIGIN LEVEL: 221234 DIFFERENT FILL-ORIGIN LEVEL: 0
L2C AVERAGE MISS LATENCY: 39.9501 cycles
L2C RQ	ACCESS:    2067921	FORWARD:          0	MERGED:          0	TO_CACHE:    2067903
L2C WQ	ACCESS:     260686	FORWARD:         19	MERGED:          0	TO_CACHE:     260686
L2C PQ	ACCESS:     559026	FORWARD:          0	MERGED:       4936	TO_CACHE:     554089

L2C Instructions Evicting Data 293225
L2C Translations Evicting Data 30461
L2C Data Evicting Data 267095
L2C Instructions Evicting Instructions 319204
L2C Translations Evicting Instructions 34624
L2C Data Evicting Instructions 292437
L2C Instructions Evicting Translations 35098
L2C Translations Evicting Translations 3001
L2C Data Evicting Translations 29804
L2C Dense regions hint from L2: 0
PSCL5 TOTAL     ACCESS:     116222  HIT:     116222  MISS:          0  HIT %:        100  MISS %:          0   MPKI: 0
PSCL5 LOAD TRANSLATION ACCESS:     116222  HIT:     116222  MISS:          0  HIT %:        100  MISS %:          0   MPKI: 0
PSCL5 PREFETCH  REQUESTED:          0  ISSUED:          0  USEFUL:          0  USELESS:          0
PSCL5 USEFUL LOAD PREFETCHES:          0 PREFETCH ISSUED TO LOWER LEVEL:          0  ACCURACY: -nan
PSCL5 TIMELY PREFETCHES:          0 LATE PREFETCHES: 0 DROPPED PREFETCHES: 0
PSCL5 PREFETCHES SAME FILL-ORIGIN LEVEL: 0 DIFFERENT FILL-ORIGIN LEVEL: 0

PSCL4 TOTAL     ACCESS:     111997  HIT:     111659  MISS:        338  HIT %:    99.6982  MISS %:   0.301794   MPKI: 0.00676
PSCL4 LOAD TRANSLATION ACCESS:     111997  HIT:     111659  MISS:        338  HIT %:    99.6982  MISS %:   0.301794   MPKI: 0.00676
PSCL4 PREFETCH  REQUESTED:          0  ISSUED:          0  USEFUL:          0  USELESS:          0
PSCL4 USEFUL LOAD PREFETCHES:          0 PREFETCH ISSUED TO LOWER LEVEL:          0  ACCURACY: -nan
PSCL4 TIMELY PREFETCHES:          0 LATE PREFETCHES: 0 DROPPED PREFETCHES: 0
PSCL4 PREFETCHES SAME FILL-ORIGIN LEVEL: 0 DIFFERENT FILL-ORIGIN LEVEL: 0

PSCL3 TOTAL     ACCESS:     115182  HIT:     114213  MISS:        969  HIT %:    99.1587  MISS %:   0.841277   MPKI: 0.01938
PSCL3 LOAD TRANSLATION ACCESS:     115182  HIT:     114213  MISS:        969  HIT %:    99.1587  MISS %:   0.841277   MPKI: 0.01938
PSCL3 PREFETCH  REQUESTED:          0  ISSUED:          0  USEFUL:          0  USELESS:          0
PSCL3 USEFUL LOAD PREFETCHES:          0 PREFETCH ISSUED TO LOWER LEVEL:          0  ACCURACY: -nan
PSCL3 TIMELY PREFETCHES:          0 LATE PREFETCHES: 0 DROPPED PREFETCHES: 0
PSCL3 PREFETCHES SAME FILL-ORIGIN LEVEL: 0 DIFFERENT FILL-ORIGIN LEVEL: 0

PSCL2 TOTAL     ACCESS:     116222  HIT:      86369  MISS:      29853  HIT %:    74.3138  MISS %:    25.6862   MPKI: 0.59706
PSCL2 LOAD TRANSLATION ACCESS:     116222  HIT:      86369  MISS:      29853  HIT %:    74.3138  MISS %:    25.6862   MPKI: 0.59706
PSCL2 PREFETCH  REQUESTED:          0  ISSUED:          0  USEFUL:          0  USELESS:          0
PSCL2 USEFUL LOAD PREFETCHES:          0 PREFETCH ISSUED TO LOWER LEVEL:          0  ACCURACY: -nan
PSCL2 TIMELY PREFETCHES:          0 LATE PREFETCHES: 0 DROPPED PREFETCHES: 0
PSCL2 PREFETCHES SAME FILL-ORIGIN LEVEL: 0 DIFFERENT FILL-ORIGIN LEVEL: 0

LLC TOTAL     ACCESS:    1470351  HIT:    1384478  MISS:      85873  HIT %:    94.1597  MISS %:    5.84031   MPKI: 1.71746
LLC LOAD      ACCESS:     891185  HIT:     866461  MISS:      24724  HIT %:    97.2257  MISS %:    2.77428   MPKI: 0.49448
LLC RFO       ACCESS:      52223  HIT:      40864  MISS:      11359  HIT %:     78.249  MISS %:     21.751   MPKI: 0.22718
LLC PREFETCH  ACCESS:     293441  HIT:     245519  MISS:      47922  HIT %:    83.6689  MISS %:    16.3311   MPKI: 0.95844
LLC WRITEBACK ACCESS:     165416  HIT:     164874  MISS:        542  HIT %:    99.6723  MISS %:   0.327659   MPKI: 0.01084
LLC LOAD TRANSLATION ACCESS:      68086  HIT:      66760  MISS:       1326  HIT %:    98.0525  MISS %:    1.94754   MPKI: 0.02652
LLC PREFETCH  REQUESTED:          0  ISSUED:          0  USEFUL:       3949  USELESS:      43412
LLC USEFUL LOAD PREFETCHES:       3949 PREFETCH ISSUED TO LOWER LEVEL:      47922  ACCURACY: 8.24047
LLC TIMELY PREFETCHES:       3949 LATE PREFETCHES: 0 DROPPED PREFETCHES: 0
LLC PREFETCHES SAME FILL-ORIGIN LEVEL: 0 DIFFERENT FILL-ORIGIN LEVEL: 0
LLC AVERAGE MISS LATENCY: 156.042 cycles
LLC RQ	ACCESS:    1011508	FORWARD:          0	MERGED:          0	TO_CACHE:    1011494
LLC WQ	ACCESS:     165416	FORWARD:         14	MERGED:          0	TO_CACHE:     165416
LLC PQ	ACCESS:     293441	FORWARD:          0	MERGED:          0	TO_CACHE:     293441

LLC Dense regions hint to LLC: 0

RAW hits: 791742
Loads Generated: 11431494
Loads sent to L1D: 10639752
Stores Generated: 5207898
Stores sent to L1D: 5207903
Major fault: 0 Minor fault: 4938
Allocated PAGES: 4938

stream: 
stream:times selected: 431139
stream:pref_filled: 71158
stream:pref_useful: 20005
stream:pref_late: 3241
stream:misses: 6294
stream:misses_by_poll: 0

CS: 
CS:times selected: 26688
CS:pref_filled: 13284
CS:pref_useful: 9462
CS:pref_late: 2661
CS:misses: 4571
CS:misses_by_poll: 0

CPLX: 
CPLX:times selected: 401260
CPLX:pref_filled: 29378
CPLX:pref_useful: 4108
CPLX:pref_late: 426
CPLX:misses: 33347
CPLX:misses_by_poll: 1

NL_L1: 
NL:times selected: 3100
NL:pref_filled: 1195
NL:pref_useful: 176
NL:pref_late: 28
NL:misses: 382
NL:misses_by_poll: 0

total selections: 862187
total_filled: 98668
total_useful: 28657
total_late: 6755
total_polluted: 1
total_misses_after_warmup: 563054
conflicts: 2437670
Degree Incremented Times: 1893
Degree Decremented Times: 138338

L1 IP Table Write Accesses: 4294017
L1 IP Table Read Accesses: 1856347
L1 RST Write Accesses: 362765
L1 RST Read Accesses: 725530
L1 CSPT Write Accesses: 362765
L1 CSPT Read Accesses: 701933
L1 RR Filter Tag Write Accesses: 239634
L1 RR Filter Tag Read Accesses: 14825841
L1 IP Table Tag Write Accesses: 7255410
L1 IP Table Tag Read Accesses: 7255410
L1 RST Tag Write Accesses: 0
L1 RST Tag Read Accesses: 3473293
L1 RR Filter Write Accesses: 0
L1 RR Filter Read Accesses: 537039
test: 114836
L2 IP Table Read Accesses: 797141
L2 IP Table Write Accesses: 1119721
L2 IP Table Tag Read Accesses: 630098
L2 IP Table Tag Write Accesses: 630098

DRAM Statistics
 CHANNEL 0
 RQ ROW_BUFFER_HIT:      14513  ROW_BUFFER_MISS:      70813
 DBUS_CONGESTED:         42
 WQ ROW_BUFFER_HIT:       6161  ROW_BUFFER_MISS:      50193  FULL:          0

 AVG_CONGESTED_CYCLE: 4
 All warmup complete: 2
Channel 0 Bank busy for read cycles: 0
Channel 0 Bank busy for write cycles: 0
Channel 0
Rank 0
0banks busy for read cycles: 88074640
0banks busy for write cycles: 30392
1banks busy for read cycles: 6476262
1banks busy for write cycles: 3915567
2banks busy for read cycles: 1516219
2banks busy for write cycles: 1070459
3banks busy for read cycles: 340170
3banks busy for write cycles: 336454
4banks busy for read cycles: 104523
4banks busy for write cycles: 166538
5banks busy for read cycles: 31440
5banks busy for write cycles: 101845
6banks busy for read cycles: 13011
6banks busy for write cycles: 75789
7banks busy for read cycles: 9864
7banks busy for write cycles: 69352
8banks busy for read cycles: 12336
8banks busy for write cycles: 89680

CPU 0 Branch Prediction Accuracy: 93.0432% MPKI: 12.9126 Average ROB Occupancy at Mispredict: 21.5639
Branch types
NOT_BRANCH: 40719347 81.4387%
BRANCH_DIRECT_JUMP: 461138 0.922276%
BRANCH_INDIRECT: 153421 0.306842%
BRANCH_CONDITIONAL: 6954241 13.9085%
BRANCH_DIRECT_CALL: 670236 1.34047%
BRANCH_INDIRECT_CALL: 168700 0.3374%
BRANCH_RETURN: 872872 1.74574%
BRANCH_OTHER: 0 0%

@sumon_overall_L1D     28657      6083     70047     98668    478862    479001
@Sumon_Early_by_class_L1D     16306      7031      3341        27
@Sumon_Late_by_class_L1D      3043      2304       374        27

@Sumon_Early_by_cycle_L1D      6826      2379      4980      1888      1943      3582      1314      1352      2008      1656       622       107
@Sumon_Late_by_cycle_L1D      5638       441         4         0         0         0         0         0         0         0         0         0
@Sumon_Early_stream_L1D      3166      1671      1686      1362      1292      2176       950      1017      1419      1124       373        70
@Sumon_Early_CS_L1D      2863       163      2544        90       278       740       116        82        56        20        76         3
@Sumon_Early_CPLX_L1D       388       255       467       181       155       460       225       238       394       426       126        26
@Sumon_Late_stream_L1D      2802       238         3         0         0         0         0         0         0         0         0         0
@Sumon_Late_CS_L1D      2178       126         0         0         0         0         0         0         0         0         0         0
@Sumon_Late_CPLX_L1D       342        31         1         0         0         0         0         0         0         0         0         0
@sumon_overall_L2C     72918      6225    214311    287216    454144    454144
@Sumon_Early_by_class_L2C      1364       528       548         0
@Sumon_Late_by_class_L2C         0         0         0         0

@Sumon_Early_by_cycle_L2C     12198      8422      8768      5746      4110     10388      5030      3605      2526      2595      1747      7783
@Sumon_Late_by_cycle_L2C      4637      1587         1         0         0         0         0         0         0         0         0         0
@Sumon_Early_stream_L2C         0         0         0         0         0         0         0         0         1        12        81      1270
@Sumon_Early_CS_L2C         0         0         0         0         0         0         0         0         0         1        42       485
@Sumon_Early_CPLX_L2C         0         0         0         0         0         0         0         0         0         7        46       495
@Sumon_Late_stream_L2C         0         0         0         0         0         0         0         0         0         0         0         0
@Sumon_Late_CS_L2C         0         0         0         0         0         0         0         0         0         0         0         0
@Sumon_Late_CPLX_L2C         0         0         0         0         0         0         0         0         0         0         0         0
DRAM PAGES: 1048576
Allocated PAGES: 4938
