
*** ChampSim Multicore Out-of-Order Simulator ***

Warmup Instructions: 10000000
Simulation Instructions: 50000000
Number of CPUs: 1
LLC sets: 2048
LLC ways: 16
Off-chip DRAM Size: 4096 MB Channels: 1 Width: 64-bit Data Rate: 6400 MT/s
CPU 0 runs traces/clientserver/server_009.champsimtrace.xz
.xz
CPU 0 Bimodal branch predictor
BTB has LRU replacement policy
ITLB has LRU replacement policy
DTLB has LRU replacement policy
STLB has LRU replacement policy
L1I has LRU replacement policy
IP Table Entries: 256
L1D has LRU replacement policy
IP_Table L2 entries: 256
L2C has LRU replacement policy
Initialize DRRIP state for LLC
Heartbeat CPU 0 instructions: 10000001 cycles: 2771583 heartbeat IPC: 3.60805 cumulative IPC: 3.60805 (Simulation time: 0 hr 16 min 0 sec) 

Warmup complete CPU 0 instructions: 10000001 cycles: 2771583 (Simulation time: 0 hr 16 min 0 sec) 

Heartbeat CPU 0 instructions: 20000003 cycles: 23572007 heartbeat IPC: 0.48076 cumulative IPC: 0.48076 (Simulation time: 0 hr 32 min 30 sec) 
Heartbeat CPU 0 instructions: 30000002 cycles: 44445003 heartbeat IPC: 0.479088 cumulative IPC: 0.479922 (Simulation time: 0 hr 49 min 15 sec) 
Heartbeat CPU 0 instructions: 40000000 cycles: 65703173 heartbeat IPC: 0.470407 cumulative IPC: 0.476708 (Simulation time: 1 hr 5 min 46 sec) 
Heartbeat CPU 0 instructions: 50000002 cycles: 86177947 heartbeat IPC: 0.488406 cumulative IPC: 0.47958 (Simulation time: 1 hr 22 min 35 sec) 
Heartbeat CPU 0 instructions: 60000001 cycles: 112458109 heartbeat IPC: 0.380515 cumulative IPC: 0.455844 (Simulation time: 1 hr 41 min 49 sec) 
Finished CPU 0 instructions: 50000000 cycles: 109686526 cumulative IPC: 0.455844 (Simulation time: 1 hr 41 min 49 sec) 

ChampSim completed all CPUs

Region of Interest Statistics

CPU 0 cumulative IPC: 0.455844 instructions: 50000000 cycles: 109686526
ITLB TOTAL     ACCESS:    8298095  HIT:    8112942  MISS:     185153  HIT %:    97.7687  MISS %:    2.23127   MPKI: 3.70306
ITLB LOAD TRANSLATION ACCESS:    8298095  HIT:    8112942  MISS:     185153  HIT %:    97.7687  MISS %:    2.23127   MPKI: 3.70306
ITLB PREFETCH  REQUESTED:          0  ISSUED:          0  USEFUL:          0  USELESS:          0
ITLB USEFUL LOAD PREFETCHES:          0 PREFETCH ISSUED TO LOWER LEVEL:          0  ACCURACY: -nan
ITLB TIMELY PREFETCHES:          0 LATE PREFETCHES: 0 DROPPED PREFETCHES: 0
ITLB PREFETCHES SAME FILL-ORIGIN LEVEL: 0 DIFFERENT FILL-ORIGIN LEVEL: 0
ITLB AVERAGE MISS LATENCY: 17.477 cycles
ITLB RQ	ACCESS:   10025175	FORWARD:          0	MERGED:    1679289	TO_CACHE:    8345886

DTLB TOTAL     ACCESS:   10475543  HIT:    9434762  MISS:    1040781  HIT %:    90.0647  MISS %:    9.93534   MPKI: 20.8156
DTLB LOAD TRANSLATION ACCESS:   10475543  HIT:    9434762  MISS:    1040781  HIT %:    90.0647  MISS %:    9.93534   MPKI: 20.8156
DTLB PREFETCH  REQUESTED:          0  ISSUED:          0  USEFUL:          0  USELESS:          0
DTLB USEFUL LOAD PREFETCHES:          0 PREFETCH ISSUED TO LOWER LEVEL:          0  ACCURACY: -nan
DTLB TIMELY PREFETCHES:          0 LATE PREFETCHES: 0 DROPPED PREFETCHES: 0
DTLB PREFETCHES SAME FILL-ORIGIN LEVEL: 0 DIFFERENT FILL-ORIGIN LEVEL: 0
DTLB AVERAGE MISS LATENCY: 12.6195 cycles
DTLB RQ	ACCESS:   13111235	FORWARD:          0	MERGED:    2600761	TO_CACHE:   10510474

STLB TOTAL     ACCESS:    1976885  HIT:    1865774  MISS:     111111  HIT %:    94.3795  MISS %:    5.62051   MPKI: 2.22222
STLB LOAD TRANSLATION ACCESS:    1225934  HIT:    1114823  MISS:     111111  HIT %:    90.9366  MISS %:    9.06338   MPKI: 2.22222
STLB TRANSLATION FROM L1D PREFETCHER ACCESS:     750951  HIT:     750951  MISS:          0  HIT %:        100  MISS %:          0   MPKI: 0
STLB PREFETCH  REQUESTED:          0  ISSUED:          0  USEFUL:          0  USELESS:          0
STLB USEFUL LOAD PREFETCHES:          0 PREFETCH ISSUED TO LOWER LEVEL:          0  ACCURACY: -nan
STLB TIMELY PREFETCHES:          0 LATE PREFETCHES: 0 DROPPED PREFETCHES: 0
STLB PREFETCHES SAME FILL-ORIGIN LEVEL: 0 DIFFERENT FILL-ORIGIN LEVEL: 0
STLB AVERAGE MISS LATENCY: 47.8766 cycles
STLB RQ	ACCESS:    2646057	FORWARD:          0	MERGED:     669172	TO_CACHE:    1976885

STLB Hit, L1D data hit: 0
STLB Hit, L2C data hit: 0
STLB Hit, LLC data hit: 0
STLB Hit, LLC data miss: 0
STLB STLB hints to L2: 0
L1D TOTAL     ACCESS:   14359120  HIT:   12362656  MISS:    1996464  HIT %:    86.0962  MISS %:    13.9038   MPKI: 39.9293
L1D LOAD      ACCESS:    8122588  HIT:    6977960  MISS:    1144628  HIT %:    85.9081  MISS %:    14.0919   MPKI: 22.8926
L1D RFO       ACCESS:    4850973  HIT:    4754831  MISS:      96142  HIT %:    98.0181  MISS %:    1.98191   MPKI: 1.92284
L1D PREFETCH  ACCESS:    1385559  HIT:     629865  MISS:     755694  HIT %:    45.4593  MISS %:    54.5407   MPKI: 15.1139
L1D PREFETCH  REQUESTED:    2840511  ISSUED:    2840400  USEFUL:      81993  USELESS:     673454
L1D USEFUL LOAD PREFETCHES:      81993 PREFETCH ISSUED TO LOWER LEVEL:     778427  ACCURACY: 10.5332
L1D TIMELY PREFETCHES:      81993 LATE PREFETCHES: 22606 DROPPED PREFETCHES: 0
L1D PREFETCHES SAME FILL-ORIGIN LEVEL: 778427 DIFFERENT FILL-ORIGIN LEVEL: 0
L1D AVERAGE MISS LATENCY: 1.04601e+06 cycles
L1D RQ	ACCESS:   11459789	FORWARD:          0	MERGED:    3235472	TO_CACHE:    8148906
L1D WQ	ACCESS:    5045877	FORWARD:      75565	MERGED:      83548	TO_CACHE:    4962329
L1D PQ	ACCESS:    1420277	FORWARD:          0	MERGED:          0	TO_CACHE:    1420123

L1D UNIQUE REGIONS ACCESSED: 0
L1D REGIONS CONFLICTS: 0
L1D Cross Page Prefetch Requests: 0
L1D Same Page Prefetch Requests: 1469121
L1D ROI Sum of L1D PQ occupancy: 18633725
L1D PREFETCHES PUSHED FROM L2C: 0
L1I TOTAL     ACCESS:    9635362  HIT:    8421281  MISS:    1214081  HIT %:    87.3997  MISS %:    12.6003   MPKI: 24.2816
L1I LOAD      ACCESS:    9635362  HIT:    8421281  MISS:    1214081  HIT %:    87.3997  MISS %:    12.6003   MPKI: 24.2816
L1I PREFETCH  REQUESTED:          0  ISSUED:          0  USEFUL:          0  USELESS:          0
L1I USEFUL LOAD PREFETCHES:          0 PREFETCH ISSUED TO LOWER LEVEL:          0  ACCURACY: -nan
L1I TIMELY PREFETCHES:          0 LATE PREFETCHES: 0 DROPPED PREFETCHES: 0
L1I PREFETCHES SAME FILL-ORIGIN LEVEL: 0 DIFFERENT FILL-ORIGIN LEVEL: 0
L1I AVERAGE MISS LATENCY: 30.587 cycles
L1I RQ	ACCESS:   14396080	FORWARD:          0	MERGED:    4370905	TO_CACHE:   10025175

BTB TOTAL     ACCESS:    5173686  HIT:    4398171  MISS:     775515  HIT %:    85.0104  MISS %:    14.9896   MPKI: 15.5103
BTB BRANCH_DIRECT_JUMP	ACCESS:     463492  HIT:     404158  MISS:      59334
BTB BRANCH_INDIRECT	ACCESS:     174870  HIT:     123350  MISS:      51520
BTB BRANCH_CONDITIONAL	ACCESS:    2812699  HIT:    2571063  MISS:     241636
BTB BRANCH_DIRECT_CALL	ACCESS:     679008  HIT:     567416  MISS:     111592
BTB BRANCH_INDIRECT_CALL	ACCESS:     165073  HIT:     152920  MISS:      12153
BTB BRANCH_RETURN	ACCESS:     878544  HIT:     579264  MISS:     299280
BTB BRANCH_OTHER ACCESS:          0  HIT:          0  MISS:          0

L2C TOTAL     ACCESS:    4003201  HIT:    2759850  MISS:    1243351  HIT %:    68.9411  MISS %:    31.0589   MPKI: 24.867
L2C LOAD      ACCESS:    2336089  HIT:    1478916  MISS:     857173  HIT %:    63.3073  MISS %:    36.6927   MPKI: 17.1435
L2C DATA LOAD MPKI: 4.73106
L2C INSTRUCTION LOAD MPKI: 12.4124
L2C RFO       ACCESS:      96013  HIT:      47830  MISS:      48183  HIT %:    49.8162  MISS %:    50.1838   MPKI: 0.96366
L2C PREFETCH  ACCESS:    1176883  HIT:     906704  MISS:     270179  HIT %:    77.0428  MISS %:    22.9572   MPKI: 5.40358
L2C DATA PREFETCH MPKI: 5.40358
L2C INSTRUCTION PREFETCH MPKI: 0
L2C WRITEBACK ACCESS:     253620  HIT:     250545  MISS:       3075  HIT %:    98.7876  MISS %:    1.21244   MPKI: 0.0615
L2C LOAD TRANSLATION ACCESS:     140596  HIT:      75855  MISS:      64741  HIT %:    53.9525  MISS %:    46.0475   MPKI: 1.29482
L2C PREFETCH  REQUESTED:     424249  ISSUED:     424249  USEFUL:      69032  USELESS:     200328
L2C USEFUL LOAD PREFETCHES:      69032 PREFETCH ISSUED TO LOWER LEVEL:     275817  ACCURACY: 25.0282
L2C TIMELY PREFETCHES:      69032 LATE PREFETCHES: 5638 DROPPED PREFETCHES: 0
L2C PREFETCHES SAME FILL-ORIGIN LEVEL: 207892 DIFFERENT FILL-ORIGIN LEVEL: 0
L2C AVERAGE MISS LATENCY: 41.5629 cycles
L2C RQ	ACCESS:    2572714	FORWARD:          0	MERGED:          0	TO_CACHE:    2572698
L2C WQ	ACCESS:     253620	FORWARD:         16	MERGED:          0	TO_CACHE:     253620
L2C PQ	ACCESS:    1202676	FORWARD:          0	MERGED:       4629	TO_CACHE:    1198047

L2C Instructions Evicting Data 279140
L2C Translations Evicting Data 29660
L2C Data Evicting Data 247007
L2C Instructions Evicting Instructions 308791
L2C Translations Evicting Instructions 32188
L2C Data Evicting Instructions 278929
L2C Instructions Evicting Translations 32689
L2C Translations Evicting Translations 2893
L2C Data Evicting Translations 28979
L2C Dense regions hint from L2: 0
PSCL5 TOTAL     ACCESS:     111111  HIT:     111111  MISS:          0  HIT %:        100  MISS %:          0   MPKI: 0
PSCL5 LOAD TRANSLATION ACCESS:     111111  HIT:     111111  MISS:          0  HIT %:        100  MISS %:          0   MPKI: 0
PSCL5 PREFETCH  REQUESTED:          0  ISSUED:          0  USEFUL:          0  USELESS:          0
PSCL5 USEFUL LOAD PREFETCHES:          0 PREFETCH ISSUED TO LOWER LEVEL:          0  ACCURACY: -nan
PSCL5 TIMELY PREFETCHES:          0 LATE PREFETCHES: 0 DROPPED PREFETCHES: 0
PSCL5 PREFETCHES SAME FILL-ORIGIN LEVEL: 0 DIFFERENT FILL-ORIGIN LEVEL: 0

PSCL4 TOTAL     ACCESS:     103017  HIT:     102700  MISS:        317  HIT %:    99.6923  MISS %:   0.307716   MPKI: 0.00634
PSCL4 LOAD TRANSLATION ACCESS:     103017  HIT:     102700  MISS:        317  HIT %:    99.6923  MISS %:   0.307716   MPKI: 0.00634
PSCL4 PREFETCH  REQUESTED:          0  ISSUED:          0  USEFUL:          0  USELESS:          0
PSCL4 USEFUL LOAD PREFETCHES:          0 PREFETCH ISSUED TO LOWER LEVEL:          0  ACCURACY: -nan
PSCL4 TIMELY PREFETCHES:          0 LATE PREFETCHES: 0 DROPPED PREFETCHES: 0
PSCL4 PREFETCHES SAME FILL-ORIGIN LEVEL: 0 DIFFERENT FILL-ORIGIN LEVEL: 0

PSCL3 TOTAL     ACCESS:     110284  HIT:     109400  MISS:        884  HIT %:    99.1984  MISS %:   0.801567   MPKI: 0.01768
PSCL3 LOAD TRANSLATION ACCESS:     110284  HIT:     109400  MISS:        884  HIT %:    99.1984  MISS %:   0.801567   MPKI: 0.01768
PSCL3 PREFETCH  REQUESTED:          0  ISSUED:          0  USEFUL:          0  USELESS:          0
PSCL3 USEFUL LOAD PREFETCHES:          0 PREFETCH ISSUED TO LOWER LEVEL:          0  ACCURACY: -nan
PSCL3 TIMELY PREFETCHES:          0 LATE PREFETCHES: 0 DROPPED PREFETCHES: 0
PSCL3 PREFETCHES SAME FILL-ORIGIN LEVEL: 0 DIFFERENT FILL-ORIGIN LEVEL: 0

PSCL2 TOTAL     ACCESS:     111111  HIT:      82753  MISS:      28358  HIT %:    74.4778  MISS %:    25.5222   MPKI: 0.56716
PSCL2 LOAD TRANSLATION ACCESS:     111111  HIT:      82753  MISS:      28358  HIT %:    74.4778  MISS %:    25.5222   MPKI: 0.56716
PSCL2 PREFETCH  REQUESTED:          0  ISSUED:          0  USEFUL:          0  USELESS:          0
PSCL2 USEFUL LOAD PREFETCHES:          0 PREFETCH ISSUED TO LOWER LEVEL:          0  ACCURACY: -nan
PSCL2 TIMELY PREFETCHES:          0 LATE PREFETCHES: 0 DROPPED PREFETCHES: 0
PSCL2 PREFETCHES SAME FILL-ORIGIN LEVEL: 0 DIFFERENT FILL-ORIGIN LEVEL: 0

LLC TOTAL     ACCESS:    1394741  HIT:    1301637  MISS:      93104  HIT %:    93.3246  MISS %:    6.67536   MPKI: 1.86208
LLC LOAD      ACCESS:     851688  HIT:     822115  MISS:      29573  HIT %:    96.5277  MISS %:    3.47228   MPKI: 0.59146
LLC RFO       ACCESS:      48030  HIT:      36398  MISS:      11632  HIT %:    75.7818  MISS %:    24.2182   MPKI: 0.23264
LLC PREFETCH  ACCESS:     275817  HIT:     226584  MISS:      49233  HIT %:    82.1501  MISS %:    17.8499   MPKI: 0.98466
LLC WRITEBACK ACCESS:     154465  HIT:     153839  MISS:        626  HIT %:    99.5947  MISS %:    0.40527   MPKI: 0.01252
LLC LOAD TRANSLATION ACCESS:      64741  HIT:      62701  MISS:       2040  HIT %:     96.849  MISS %:    3.15102   MPKI: 0.0408
LLC PREFETCH  REQUESTED:          0  ISSUED:          0  USEFUL:       4020  USELESS:      45194
LLC USEFUL LOAD PREFETCHES:       4020 PREFETCH ISSUED TO LOWER LEVEL:      49233  ACCURACY: 8.16526
LLC TIMELY PREFETCHES:       4020 LATE PREFETCHES: 0 DROPPED PREFETCHES: 0
LLC PREFETCHES SAME FILL-ORIGIN LEVEL: 0 DIFFERENT FILL-ORIGIN LEVEL: 0
LLC AVERAGE MISS LATENCY: 158.01 cycles
LLC RQ	ACCESS:     964459	FORWARD:          0	MERGED:          0	TO_CACHE:     964459
LLC WQ	ACCESS:     154465	FORWARD:          0	MERGED:          0	TO_CACHE:     154465
LLC PQ	ACCESS:     275817	FORWARD:          0	MERGED:          0	TO_CACHE:     275817

LLC Dense regions hint to LLC: 0

RAW hits: 771978
Loads Generated: 12231765
Loads sent to L1D: 11459789
Stores Generated: 5045874
Stores sent to L1D: 5045877
Major fault: 0 Minor fault: 5580
Allocated PAGES: 5580

stream: 
stream:times selected: 1223638
stream:pref_filled: 487615
stream:pref_useful: 28411
stream:pref_late: 3004
stream:misses: 300487
stream:misses_by_poll: 0

CS: 
CS:times selected: 237548
CS:pref_filled: 113151
CS:pref_useful: 27403
CS:pref_late: 2924
CS:misses: 25224
CS:misses_by_poll: 11

CPLX: 
CPLX:times selected: 1101534
CPLX:pref_filled: 169953
CPLX:pref_useful: 30772
CPLX:pref_late: 308
CPLX:misses: 312763
CPLX:misses_by_poll: 183

NL_L1: 
NL:times selected: 7678
NL:pref_filled: 1159
NL:pref_useful: 181
NL:pref_late: 21
NL:misses: 364
NL:misses_by_poll: 0

total selections: 2570398
total_filled: 755694
total_useful: 81993
total_late: 23350
total_polluted: 194
total_misses_after_warmup: 1170948
conflicts: 2382942
Degree Incremented Times: 32448
Degree Decremented Times: 141801

L1 IP Table Write Accesses: 5230935
L1 IP Table Read Accesses: 2847993
L1 RST Write Accesses: 1156372
L1 RST Read Accesses: 2312744
L1 CSPT Write Accesses: 1156372
L1 CSPT Read Accesses: 2196373
L1 RR Filter Tag Write Accesses: 1420388
L1 RR Filter Tag Read Accesses: 59932607
L1 IP Table Tag Write Accesses: 8148908
L1 IP Table Tag Read Accesses: 8148908
L1 RST Tag Write Accesses: 0
L1 RST Tag Read Accesses: 10210029
L1 RR Filter Write Accesses: 0
L1 RR Filter Read Accesses: 1955826
test: 566518
L2 IP Table Read Accesses: 3358361
L2 IP Table Write Accesses: 3030839
L2 IP Table Tag Read Accesses: 1895332
L2 IP Table Tag Write Accesses: 1895332

DRAM Statistics
 CHANNEL 0
 RQ ROW_BUFFER_HIT:      15456  ROW_BUFFER_MISS:      77021
 DBUS_CONGESTED:         52
 WQ ROW_BUFFER_HIT:       7247  ROW_BUFFER_MISS:      49418  FULL:          0

 AVG_CONGESTED_CYCLE: 4
 All warmup complete: 2
Channel 0 Bank busy for read cycles: 0
Channel 0 Bank busy for write cycles: 0
Channel 0
Rank 0
0banks busy for read cycles: 94940261
0banks busy for write cycles: 28895
1banks busy for read cycles: 6652450
1banks busy for write cycles: 3792335
2banks busy for read cycles: 1672681
2banks busy for write cycles: 1014314
3banks busy for read cycles: 403873
3banks busy for write cycles: 339943
4banks busy for read cycles: 141530
4banks busy for write cycles: 188194
5banks busy for read cycles: 46949
5banks busy for write cycles: 124367
6banks busy for read cycles: 19739
6banks busy for write cycles: 101603
7banks busy for read cycles: 10208
7banks busy for write cycles: 85274
8banks busy for read cycles: 16354
8banks busy for write cycles: 107557

CPU 0 Branch Prediction Accuracy: 93.4981% MPKI: 12.6299 Average ROB Occupancy at Mispredict: 24.6434
Branch types
NOT_BRANCH: 40287182 80.5744%
BRANCH_DIRECT_JUMP: 463492 0.926984%
BRANCH_INDIRECT: 174870 0.34974%
BRANCH_CONDITIONAL: 7351543 14.7031%
BRANCH_DIRECT_CALL: 679008 1.35802%
BRANCH_INDIRECT_CALL: 165073 0.330146%
BRANCH_RETURN: 878544 1.75709%
BRANCH_OTHER: 0 0%

@sumon_overall_L1D     81993     22606    673454    755694   2840400   2840511
@Sumon_Early_by_class_L1D     24753     25234     30094        17
@Sumon_Late_by_class_L1D      2779      2511       257        17

@Sumon_Early_by_cycle_L1D     51142      3054     13775      1900      1770      3412      1300      1353      1986      1500       641       160
@Sumon_Late_by_cycle_L1D     22090       490        23         3         0         0         0         0         0         0         0         0
@Sumon_Early_stream_L1D     11773      1560      1730      1265      1231      2184       958      1064      1398      1080       394       116
@Sumon_Early_CS_L1D     21254       577      2215        82       219       585       108        69        43        13        60         9
@Sumon_Early_CPLX_L1D     17734       620      9610       286       125       440       193       195       398       337       127        29
@Sumon_Late_stream_L1D      2531       245         3         0         0         0         0         0         0         0         0         0
@Sumon_Late_CS_L1D      2295       196        17         3         0         0         0         0         0         0         0         0
@Sumon_Late_CPLX_L1D       233        21         3         0         0         0         0         0         0         0         0         0
@sumon_overall_L2C     69032      5638    200328    270179    424249    424249
@Sumon_Early_by_class_L2C      1493       418       583         0
@Sumon_Late_by_class_L2C         0         0         0         0

@Sumon_Early_by_cycle_L2C     11018      7925      8450      5208      3778      9928      4825      3358      2446      2530      1696      7870
@Sumon_Late_by_cycle_L2C      4151      1486         1         0         0         0         0         0         0         0         0         0
@Sumon_Early_stream_L2C         0         0         0         0         0         0         0         0         0        15        96      1382
@Sumon_Early_CS_L2C         0         0         0         0         0         0         0         0         0         1        59       358
@Sumon_Early_CPLX_L2C         0         0         0         0         0         0         0         0         0        13        50       520
@Sumon_Late_stream_L2C         0         0         0         0         0         0         0         0         0         0         0         0
@Sumon_Late_CS_L2C         0         0         0         0         0         0         0         0         0         0         0         0
@Sumon_Late_CPLX_L2C         0         0         0         0         0         0         0         0         0         0         0         0
DRAM PAGES: 1048576
Allocated PAGES: 5580
