
*** ChampSim Multicore Out-of-Order Simulator ***

Warmup Instructions: 10000000
Simulation Instructions: 50000000
Number of CPUs: 1
LLC sets: 2048
LLC ways: 16
Off-chip DRAM Size: 4096 MB Channels: 1 Width: 64-bit Data Rate: 6400 MT/s
CPU 0 runs traces/clientserver/server_019.champsimtrace.xz
.xz
CPU 0 Bimodal branch predictor
BTB has LRU replacement policy
ITLB has LRU replacement policy
DTLB has LRU replacement policy
STLB has LRU replacement policy
L1I has LRU replacement policy
IP Table Entries: 256
L1D has LRU replacement policy
IP_Table L2 entries: 256
L2C has LRU replacement policy
Initialize DRRIP state for LLC
Heartbeat CPU 0 instructions: 10000002 cycles: 3155068 heartbeat IPC: 3.1695 cumulative IPC: 3.1695 (Simulation time: 0 hr 19 min 7 sec) 

Warmup complete CPU 0 instructions: 10000002 cycles: 3155068 (Simulation time: 0 hr 19 min 7 sec) 

Heartbeat CPU 0 instructions: 20000000 cycles: 25994822 heartbeat IPC: 0.437833 cumulative IPC: 0.437833 (Simulation time: 0 hr 44 min 10 sec) 
Heartbeat CPU 0 instructions: 30000003 cycles: 48716727 heartbeat IPC: 0.440104 cumulative IPC: 0.438966 (Simulation time: 1 hr 8 min 43 sec) 
Heartbeat CPU 0 instructions: 40000002 cycles: 71371420 heartbeat IPC: 0.44141 cumulative IPC: 0.439777 (Simulation time: 1 hr 33 min 14 sec) 
Heartbeat CPU 0 instructions: 50000001 cycles: 94064607 heartbeat IPC: 0.440661 cumulative IPC: 0.439998 (Simulation time: 1 hr 44 min 46 sec) 
Heartbeat CPU 0 instructions: 60000000 cycles: 119658988 heartbeat IPC: 0.390711 cumulative IPC: 0.42917 (Simulation time: 1 hr 48 min 53 sec) 
Finished CPU 0 instructions: 50000002 cycles: 116503921 cumulative IPC: 0.42917 (Simulation time: 1 hr 48 min 53 sec) 

ChampSim completed all CPUs

Region of Interest Statistics

CPU 0 cumulative IPC: 0.42917 instructions: 50000002 cycles: 116503921
ITLB TOTAL     ACCESS:    8951656  HIT:    8572170  MISS:     379486  HIT %:    95.7607  MISS %:    4.23928   MPKI: 7.58972
ITLB LOAD TRANSLATION ACCESS:    8951656  HIT:    8572170  MISS:     379486  HIT %:    95.7607  MISS %:    4.23928   MPKI: 7.58972
ITLB PREFETCH  REQUESTED:          0  ISSUED:          0  USEFUL:          0  USELESS:          0
ITLB USEFUL LOAD PREFETCHES:          0 PREFETCH ISSUED TO LOWER LEVEL:          0  ACCURACY: -nan
ITLB TIMELY PREFETCHES:          0 LATE PREFETCHES: 0 DROPPED PREFETCHES: 0
ITLB PREFETCHES SAME FILL-ORIGIN LEVEL: 0 DIFFERENT FILL-ORIGIN LEVEL: 0
ITLB AVERAGE MISS LATENCY: 9.32911 cycles
ITLB RQ	ACCESS:   10540681	FORWARD:          0	MERGED:    1466428	TO_CACHE:    9074253

DTLB TOTAL     ACCESS:   11734939  HIT:   11321627  MISS:     413312  HIT %:    96.4779  MISS %:    3.52206   MPKI: 8.26624
DTLB LOAD TRANSLATION ACCESS:   11734939  HIT:   11321627  MISS:     413312  HIT %:    96.4779  MISS %:    3.52206   MPKI: 8.26624
DTLB PREFETCH  REQUESTED:          0  ISSUED:          0  USEFUL:          0  USELESS:          0
DTLB USEFUL LOAD PREFETCHES:          0 PREFETCH ISSUED TO LOWER LEVEL:          0  ACCURACY: -nan
DTLB TIMELY PREFETCHES:          0 LATE PREFETCHES: 0 DROPPED PREFETCHES: 0
DTLB PREFETCHES SAME FILL-ORIGIN LEVEL: 0 DIFFERENT FILL-ORIGIN LEVEL: 0
DTLB AVERAGE MISS LATENCY: 19.9561 cycles
DTLB RQ	ACCESS:   16780597	FORWARD:          0	MERGED:    4967085	TO_CACHE:   11813512

STLB TOTAL     ACCESS:    1464002  HIT:    1438350  MISS:      25652  HIT %:    98.2478  MISS %:    1.75218   MPKI: 0.51304
STLB LOAD TRANSLATION ACCESS:     792798  HIT:     767146  MISS:      25652  HIT %:    96.7644  MISS %:    3.23563   MPKI: 0.51304
STLB TRANSLATION FROM L1D PREFETCHER ACCESS:     671204  HIT:     671204  MISS:          0  HIT %:        100  MISS %:          0   MPKI: 0
STLB PREFETCH  REQUESTED:          0  ISSUED:          0  USEFUL:          0  USELESS:          0
STLB USEFUL LOAD PREFETCHES:          0 PREFETCH ISSUED TO LOWER LEVEL:          0  ACCURACY: -nan
STLB TIMELY PREFETCHES:          0 LATE PREFETCHES: 0 DROPPED PREFETCHES: 0
STLB PREFETCHES SAME FILL-ORIGIN LEVEL: 0 DIFFERENT FILL-ORIGIN LEVEL: 0
STLB AVERAGE MISS LATENCY: 180.997 cycles
STLB RQ	ACCESS:    1560830	FORWARD:          0	MERGED:      96828	TO_CACHE:    1464002

STLB Hit, L1D data hit: 0
STLB Hit, L2C data hit: 0
STLB Hit, LLC data hit: 0
STLB Hit, LLC data miss: 0
STLB STLB hints to L2: 0
L1D TOTAL     ACCESS:   14840056  HIT:   12856361  MISS:    1983695  HIT %:    86.6328  MISS %:    13.3672   MPKI: 39.6739
L1D LOAD      ACCESS:    7975996  HIT:    7405739  MISS:     570257  HIT %:    92.8503  MISS %:    7.14967   MPKI: 11.4051
L1D RFO       ACCESS:    6163102  HIT:    5123844  MISS:    1039258  HIT %:    83.1374  MISS %:    16.8626   MPKI: 20.7852
L1D PREFETCH  ACCESS:     700958  HIT:     326778  MISS:     374180  HIT %:    46.6188  MISS %:    53.3812   MPKI: 7.4836
L1D PREFETCH  REQUESTED:    1538379  ISSUED:    1536101  USEFUL:     273461  USELESS:     100704
L1D USEFUL LOAD PREFETCHES:     273461 PREFETCH ISSUED TO LOWER LEVEL:     427808  ACCURACY: 63.9214
L1D TIMELY PREFETCHES:     273461 LATE PREFETCHES: 53618 DROPPED PREFETCHES: 0
L1D PREFETCHES SAME FILL-ORIGIN LEVEL: 427808 DIFFERENT FILL-ORIGIN LEVEL: 0
L1D AVERAGE MISS LATENCY: 1.63353e+06 cycles
L1D RQ	ACCESS:   11496214	FORWARD:          0	MERGED:    3350381	TO_CACHE:    8016631
L1D WQ	ACCESS:    8825080	FORWARD:     129239	MERGED:      61114	TO_CACHE:    8763966
L1D PQ	ACCESS:     768069	FORWARD:          0	MERGED:          0	TO_CACHE:     768032

L1D UNIQUE REGIONS ACCESSED: 0
L1D REGIONS CONFLICTS: 0
L1D Cross Page Prefetch Requests: 0
L1D Same Page Prefetch Requests: 924883
L1D ROI Sum of L1D PQ occupancy: 11959719
L1D PREFETCHES PUSHED FROM L2C: 0
L1I TOTAL     ACCESS:    9814231  HIT:    7393259  MISS:    2420972  HIT %:     75.332  MISS %:     24.668   MPKI: 48.4194
L1I LOAD      ACCESS:    9814231  HIT:    7393259  MISS:    2420972  HIT %:     75.332  MISS %:     24.668   MPKI: 48.4194
L1I PREFETCH  REQUESTED:          0  ISSUED:          0  USEFUL:          0  USELESS:          0
L1I USEFUL LOAD PREFETCHES:          0 PREFETCH ISSUED TO LOWER LEVEL:          0  ACCURACY: -nan
L1I TIMELY PREFETCHES:          0 LATE PREFETCHES: 0 DROPPED PREFETCHES: 0
L1I PREFETCHES SAME FILL-ORIGIN LEVEL: 0 DIFFERENT FILL-ORIGIN LEVEL: 0
L1I AVERAGE MISS LATENCY: 16.3126 cycles
L1I RQ	ACCESS:   14521620	FORWARD:          0	MERGED:    3980939	TO_CACHE:   10540681

BTB TOTAL     ACCESS:    5371902  HIT:    5113485  MISS:     258417  HIT %:    95.1895  MISS %:    4.81053   MPKI: 5.16834
BTB BRANCH_DIRECT_JUMP	ACCESS:     443646  HIT:     441750  MISS:       1896
BTB BRANCH_INDIRECT	ACCESS:      50440  HIT:      50330  MISS:        110
BTB BRANCH_CONDITIONAL	ACCESS:    3053731  HIT:    3047748  MISS:       5983
BTB BRANCH_DIRECT_CALL	ACCESS:     751314  HIT:     747394  MISS:       3920
BTB BRANCH_INDIRECT_CALL	ACCESS:     160721  HIT:     131521  MISS:      29200
BTB BRANCH_RETURN	ACCESS:     912050  HIT:     694742  MISS:     217308
BTB BRANCH_OTHER ACCESS:          0  HIT:          0  MISS:          0

L2C TOTAL     ACCESS:    6088105  HIT:    4168721  MISS:    1919384  HIT %:    68.4732  MISS %:    31.5268   MPKI: 38.3877
L2C LOAD      ACCESS:    2937594  HIT:    2520059  MISS:     417535  HIT %:    85.7865  MISS %:    14.2135   MPKI: 8.3507
L2C DATA LOAD MPKI: 5.5906
L2C INSTRUCTION LOAD MPKI: 2.7601
L2C RFO       ACCESS:    1039241  HIT:      31142  MISS:    1008099  HIT %:    2.99661  MISS %:    97.0034   MPKI: 20.162
L2C PREFETCH  ACCESS:     855928  HIT:     379719  MISS:     476209  HIT %:    44.3634  MISS %:    55.6366   MPKI: 9.52418
L2C DATA PREFETCH MPKI: 9.52418
L2C INSTRUCTION PREFETCH MPKI: 0
L2C WRITEBACK ACCESS:    1224170  HIT:    1222523  MISS:       1647  HIT %:    99.8655  MISS %:    0.13454   MPKI: 0.03294
L2C LOAD TRANSLATION ACCESS:      31172  HIT:      15278  MISS:      15894  HIT %:    49.0119  MISS %:    50.9881   MPKI: 0.31788
L2C PREFETCH  REQUESTED:     705110  ISSUED:     705110  USEFUL:      53731  USELESS:     422421
L2C USEFUL LOAD PREFETCHES:      53731 PREFETCH ISSUED TO LOWER LEVEL:     479913  ACCURACY: 11.196
L2C TIMELY PREFETCHES:      53731 LATE PREFETCHES: 3704 DROPPED PREFETCHES: 0
L2C PREFETCHES SAME FILL-ORIGIN LEVEL: 365061 DIFFERENT FILL-ORIGIN LEVEL: 0
L2C AVERAGE MISS LATENCY: 200.636 cycles
L2C RQ	ACCESS:    4008031	FORWARD:          0	MERGED:          0	TO_CACHE:    4008007
L2C WQ	ACCESS:    1224170	FORWARD:         24	MERGED:          0	TO_CACHE:    1224170
L2C PQ	ACCESS:    1132918	FORWARD:          0	MERGED:      51766	TO_CACHE:    1081152

L2C Instructions Evicting Data 129797
L2C Translations Evicting Data 14788
L2C Data Evicting Data 1619672
L2C Instructions Evicting Instructions 7164
L2C Translations Evicting Instructions 975
L2C Data Evicting Instructions 129584
L2C Instructions Evicting Translations 1044
L2C Translations Evicting Translations 131
L2C Data Evicting Translations 14582
L2C Dense regions hint from L2: 0
PSCL5 TOTAL     ACCESS:      25652  HIT:      25652  MISS:          0  HIT %:        100  MISS %:          0   MPKI: 0
PSCL5 LOAD TRANSLATION ACCESS:      25652  HIT:      25652  MISS:          0  HIT %:        100  MISS %:          0   MPKI: 0
PSCL5 PREFETCH  REQUESTED:          0  ISSUED:          0  USEFUL:          0  USELESS:          0
PSCL5 USEFUL LOAD PREFETCHES:          0 PREFETCH ISSUED TO LOWER LEVEL:          0  ACCURACY: -nan
PSCL5 TIMELY PREFETCHES:          0 LATE PREFETCHES: 0 DROPPED PREFETCHES: 0
PSCL5 PREFETCHES SAME FILL-ORIGIN LEVEL: 0 DIFFERENT FILL-ORIGIN LEVEL: 0

PSCL4 TOTAL     ACCESS:      25359  HIT:      25291  MISS:         68  HIT %:    99.7319  MISS %:   0.268149   MPKI: 0.00136
PSCL4 LOAD TRANSLATION ACCESS:      25359  HIT:      25291  MISS:         68  HIT %:    99.7319  MISS %:   0.268149   MPKI: 0.00136
PSCL4 PREFETCH  REQUESTED:          0  ISSUED:          0  USEFUL:          0  USELESS:          0
PSCL4 USEFUL LOAD PREFETCHES:          0 PREFETCH ISSUED TO LOWER LEVEL:          0  ACCURACY: -nan
PSCL4 TIMELY PREFETCHES:          0 LATE PREFETCHES: 0 DROPPED PREFETCHES: 0
PSCL4 PREFETCHES SAME FILL-ORIGIN LEVEL: 0 DIFFERENT FILL-ORIGIN LEVEL: 0

PSCL3 TOTAL     ACCESS:      24401  HIT:      24011  MISS:        390  HIT %:    98.4017  MISS %:     1.5983   MPKI: 0.0078
PSCL3 LOAD TRANSLATION ACCESS:      24401  HIT:      24011  MISS:        390  HIT %:    98.4017  MISS %:     1.5983   MPKI: 0.0078
PSCL3 PREFETCH  REQUESTED:          0  ISSUED:          0  USEFUL:          0  USELESS:          0
PSCL3 USEFUL LOAD PREFETCHES:          0 PREFETCH ISSUED TO LOWER LEVEL:          0  ACCURACY: -nan
PSCL3 TIMELY PREFETCHES:          0 LATE PREFETCHES: 0 DROPPED PREFETCHES: 0
PSCL3 PREFETCHES SAME FILL-ORIGIN LEVEL: 0 DIFFERENT FILL-ORIGIN LEVEL: 0

PSCL2 TOTAL     ACCESS:      25652  HIT:      20561  MISS:       5091  HIT %:    80.1536  MISS %:    19.8464   MPKI: 0.10182
PSCL2 LOAD TRANSLATION ACCESS:      25652  HIT:      20561  MISS:       5091  HIT %:    80.1536  MISS %:    19.8464   MPKI: 0.10182
PSCL2 PREFETCH  REQUESTED:          0  ISSUED:          0  USEFUL:          0  USELESS:          0
PSCL2 USEFUL LOAD PREFETCHES:          0 PREFETCH ISSUED TO LOWER LEVEL:          0  ACCURACY: -nan
PSCL2 TIMELY PREFETCHES:          0 LATE PREFETCHES: 0 DROPPED PREFETCHES: 0
PSCL2 PREFETCHES SAME FILL-ORIGIN LEVEL: 0 DIFFERENT FILL-ORIGIN LEVEL: 0

LLC TOTAL     ACCESS:    3080513  HIT:    1818959  MISS:    1261554  HIT %:    59.0473  MISS %:    40.9527   MPKI: 25.2311
LLC LOAD      ACCESS:     414185  HIT:     342089  MISS:      72096  HIT %:    82.5933  MISS %:    17.4067   MPKI: 1.44192
LLC RFO       ACCESS:    1007744  HIT:     176170  MISS:     831574  HIT %:    17.4816  MISS %:    82.5184   MPKI: 16.6315
LLC PREFETCH  ACCESS:     479912  HIT:     143716  MISS:     336196  HIT %:    29.9463  MISS %:    70.0537   MPKI: 6.72392
LLC WRITEBACK ACCESS:    1162778  HIT:    1150184  MISS:      12594  HIT %:    98.9169  MISS %:     1.0831   MPKI: 0.25188
LLC LOAD TRANSLATION ACCESS:      15894  HIT:       6800  MISS:       9094  HIT %:    42.7834  MISS %:    57.2166   MPKI: 0.18188
LLC PREFETCH  REQUESTED:          0  ISSUED:          0  USEFUL:       4585  USELESS:     332031
LLC USEFUL LOAD PREFETCHES:       4585 PREFETCH ISSUED TO LOWER LEVEL:     336196  ACCURACY: 1.36379
LLC TIMELY PREFETCHES:       4585 LATE PREFETCHES: 0 DROPPED PREFETCHES: 0
LLC PREFETCHES SAME FILL-ORIGIN LEVEL: 0 DIFFERENT FILL-ORIGIN LEVEL: 0
LLC AVERAGE MISS LATENCY: 257.794 cycles
LLC RQ	ACCESS:    1437824	FORWARD:          0	MERGED:          0	TO_CACHE:    1437823
LLC WQ	ACCESS:    1162778	FORWARD:          2	MERGED:          0	TO_CACHE:    1162778
LLC PQ	ACCESS:     479913	FORWARD:          0	MERGED:          0	TO_CACHE:     479912

LLC Dense regions hint to LLC: 0

RAW hits: 866878
Loads Generated: 12363092
Loads sent to L1D: 11496214
Stores Generated: 8825077
Stores sent to L1D: 8825080
Major fault: 0 Minor fault: 17712
Allocated PAGES: 17712

stream: 
stream:times selected: 2322053
stream:pref_filled: 83057
stream:pref_useful: 12556
stream:pref_late: 2505
stream:misses: 15304
stream:misses_by_poll: 0

CS: 
CS:times selected: 2033907
CS:pref_filled: 336666
CS:pref_useful: 323760
CS:pref_late: 50315
CS:misses: 55369
CS:misses_by_poll: 495

CPLX: 
CPLX:times selected: 284283
CPLX:pref_filled: 37172
CPLX:pref_useful: 2174
CPLX:pref_late: 193
CPLX:misses: 53214
CPLX:misses_by_poll: 45

NL_L1: 
NL:times selected: 976
NL:pref_filled: 329
NL:pref_useful: 15
NL:pref_late: 19
NL:misses: 402
NL:misses_by_poll: 0

total selections: 4641219
total_filled: 374180
total_useful: 273461
total_late: 54259
total_polluted: 540
total_misses_after_warmup: 610892
conflicts: 2681811
Degree Incremented Times: 66110
Degree Decremented Times: 231680

L1 IP Table Write Accesses: 5167253
L1 IP Table Read Accesses: 2485442
L1 RST Write Accesses: 1929964
L1 RST Read Accesses: 3859928
L1 CSPT Write Accesses: 1929964
L1 CSPT Read Accesses: 2165811
L1 RR Filter Tag Write Accesses: 770347
L1 RR Filter Tag Read Accesses: 215760119
L1 IP Table Tag Write Accesses: 8016631
L1 IP Table Tag Read Accesses: 8016631
L1 RST Tag Write Accesses: 0
L1 RST Tag Read Accesses: 17556000
L1 RR Filter Write Accesses: 0
L1 RR Filter Read Accesses: 7024069
test: 145996
L2 IP Table Read Accesses: 1140845
L2 IP Table Write Accesses: 1240377
L2 IP Table Tag Read Accesses: 740330
L2 IP Table Tag Write Accesses: 740330

DRAM Statistics
 CHANNEL 0
 RQ ROW_BUFFER_HIT:     448067  ROW_BUFFER_MISS:     800778
 DBUS_CONGESTED:        473
 WQ ROW_BUFFER_HIT:     255266  ROW_BUFFER_MISS:     637151  FULL:        131

 AVG_CONGESTED_CYCLE: 3
 All warmup complete: 2
Channel 0 Bank busy for read cycles: 0
Channel 0 Bank busy for write cycles: 0
Channel 0
Rank 0
0banks busy for read cycles: 45189758
0banks busy for write cycles: 41810
1banks busy for read cycles: 12399936
1banks busy for write cycles: 5396230
2banks busy for read cycles: 6754912
2banks busy for write cycles: 2590279
3banks busy for read cycles: 5070065
3banks busy for write cycles: 1718997
4banks busy for read cycles: 6477229
4banks busy for write cycles: 1443694
5banks busy for read cycles: 2136274
5banks busy for write cycles: 1280467
6banks busy for read cycles: 1689203
6banks busy for write cycles: 1309712
7banks busy for read cycles: 1594095
7banks busy for write cycles: 2115243
8banks busy for read cycles: 5804418
8banks busy for write cycles: 13491600

CPU 0 Branch Prediction Accuracy: 96.5839% MPKI: 5.63912 Average ROB Occupancy at Mispredict: 48.7089
Branch types
NOT_BRANCH: 41745937 83.4919%
BRANCH_DIRECT_JUMP: 443646 0.887292%
BRANCH_INDIRECT: 50440 0.10088%
BRANCH_CONDITIONAL: 5935548 11.8711%
BRANCH_DIRECT_CALL: 751314 1.50263%
BRANCH_INDIRECT_CALL: 160721 0.321442%
BRANCH_RETURN: 912050 1.8241%
BRANCH_OTHER: 0 0%

@sumon_overall_L1D    273461     53618    100704    374180   1536101   1538379
@Sumon_Early_by_class_L1D      9843    260791      1597        17
@Sumon_Late_by_class_L1D      2000     50265       133        17

@Sumon_Early_by_cycle_L1D    106108    149117     11026      1697       402       499       427       226      2278      1519        93        69
@Sumon_Late_by_cycle_L1D     36082     13956      3447       133         0         0         0         0         0         0         0         0
@Sumon_Early_stream_L1D      7111       303       231       315       122       147       108        44       109      1211        73        69
@Sumon_Early_CS_L1D     97741    148618     10704      1192       139        45        55        66      2057       170         4         0
@Sumon_Early_CPLX_L1D       252        76        72       183       136       288       248        86       107       133        16         0
@Sumon_Late_stream_L1D       728      1261        11         0         0         0         0         0         0         0         0         0
@Sumon_Late_CS_L1D     34513     12184      3435       133         0         0         0         0         0         0         0         0
@Sumon_Late_CPLX_L1D        42        90         1         0         0         0         0         0         0         0         0         0
@sumon_overall_L2C     53731      3704    422421    476209    705110    705110
@Sumon_Early_by_class_L2C      1470      1536       561         0
@Sumon_Late_by_class_L2C         0       669         0         0

@Sumon_Early_by_cycle_L2C      6419      5998      6540      2178      1866     11261      2639       468      4194      1511      1907      8750
@Sumon_Late_by_cycle_L2C      1556      2136        12         0         0         0         0         0         0         0         0         0
@Sumon_Early_stream_L2C         0         0         0         0         0         0         0         4         5       183       410       868
@Sumon_Early_CS_L2C       577       101        39         1         0         0         0         0       114       153       220       331
@Sumon_Early_CPLX_L2C         0         0         0         0         0         0        11       117        10        21        53       349
@Sumon_Late_stream_L2C         0         0         0         0         0         0         0         0         0         0         0         0
@Sumon_Late_CS_L2C       389       275         5         0         0         0         0         0         0         0         0         0
@Sumon_Late_CPLX_L2C         0         0         0         0         0         0         0         0         0         0         0         0
DRAM PAGES: 1048576
Allocated PAGES: 17712
