
*** ChampSim Multicore Out-of-Order Simulator ***

Warmup Instructions: 10000000
Simulation Instructions: 50000000
Number of CPUs: 1
LLC sets: 2048
LLC ways: 16
Off-chip DRAM Size: 4096 MB Channels: 1 Width: 64-bit Data Rate: 6400 MT/s
CPU 0 runs traces/clientserver/server_034.champsimtrace.xz
.xz
CPU 0 Bimodal branch predictor
BTB has LRU replacement policy
ITLB has LRU replacement policy
DTLB has LRU replacement policy
STLB has LRU replacement policy
L1I has LRU replacement policy
IP Table Entries: 256
L1D has LRU replacement policy
IP_Table L2 entries: 256
L2C has LRU replacement policy
Initialize DRRIP state for LLC
Heartbeat CPU 0 instructions: 10000000 cycles: 2763066 heartbeat IPC: 3.61917 cumulative IPC: 3.61917 (Simulation time: 0 hr 17 min 6 sec) 

Warmup complete CPU 0 instructions: 10000004 cycles: 2763067 (Simulation time: 0 hr 17 min 6 sec) 

Heartbeat CPU 0 instructions: 20000002 cycles: 23113028 heartbeat IPC: 0.491401 cumulative IPC: 0.491401 (Simulation time: 0 hr 33 min 30 sec) 
Heartbeat CPU 0 instructions: 30000001 cycles: 43500143 heartbeat IPC: 0.490506 cumulative IPC: 0.490953 (Simulation time: 0 hr 49 min 46 sec) 
Heartbeat CPU 0 instructions: 40000000 cycles: 63790459 heartbeat IPC: 0.492846 cumulative IPC: 0.491582 (Simulation time: 1 hr 5 min 45 sec) 
Heartbeat CPU 0 instructions: 50000001 cycles: 83973609 heartbeat IPC: 0.495463 cumulative IPC: 0.492547 (Simulation time: 1 hr 21 min 47 sec) 
Heartbeat CPU 0 instructions: 60000002 cycles: 104072142 heartbeat IPC: 0.497549 cumulative IPC: 0.493539 (Simulation time: 1 hr 37 min 30 sec) 
Finished CPU 0 instructions: 50000003 cycles: 101309088 cumulative IPC: 0.493539 (Simulation time: 1 hr 37 min 30 sec) 

ChampSim completed all CPUs

Region of Interest Statistics

CPU 0 cumulative IPC: 0.493539 instructions: 50000003 cycles: 101309088
ITLB TOTAL     ACCESS:    8927574  HIT:    8422726  MISS:     504848  HIT %:    94.3451  MISS %:    5.65493   MPKI: 10.097
ITLB LOAD TRANSLATION ACCESS:    8927574  HIT:    8422726  MISS:     504848  HIT %:    94.3451  MISS %:    5.65493   MPKI: 10.097
ITLB PREFETCH  REQUESTED:          0  ISSUED:          0  USEFUL:          0  USELESS:          0
ITLB USEFUL LOAD PREFETCHES:          0 PREFETCH ISSUED TO LOWER LEVEL:          0  ACCURACY: -nan
ITLB TIMELY PREFETCHES:          0 LATE PREFETCHES: 0 DROPPED PREFETCHES: 0
ITLB PREFETCHES SAME FILL-ORIGIN LEVEL: 0 DIFFERENT FILL-ORIGIN LEVEL: 0
ITLB AVERAGE MISS LATENCY: 9.0496 cycles
ITLB RQ	ACCESS:   10606451	FORWARD:          0	MERGED:    1553961	TO_CACHE:    9052490

DTLB TOTAL     ACCESS:   10779972  HIT:   10362755  MISS:     417217  HIT %:    96.1297  MISS %:     3.8703   MPKI: 8.34434
DTLB LOAD TRANSLATION ACCESS:   10779972  HIT:   10362755  MISS:     417217  HIT %:    96.1297  MISS %:     3.8703   MPKI: 8.34434
DTLB PREFETCH  REQUESTED:          0  ISSUED:          0  USEFUL:          0  USELESS:          0
DTLB USEFUL LOAD PREFETCHES:          0 PREFETCH ISSUED TO LOWER LEVEL:          0  ACCURACY: -nan
DTLB TIMELY PREFETCHES:          0 LATE PREFETCHES: 0 DROPPED PREFETCHES: 0
DTLB PREFETCHES SAME FILL-ORIGIN LEVEL: 0 DIFFERENT FILL-ORIGIN LEVEL: 0
DTLB AVERAGE MISS LATENCY: 9.22383 cycles
DTLB RQ	ACCESS:   14319755	FORWARD:          0	MERGED:    3528590	TO_CACHE:   10791165

STLB TOTAL     ACCESS:    1166948  HIT:    1165775  MISS:       1173  HIT %:    99.8995  MISS %:   0.100519   MPKI: 0.02346
STLB LOAD TRANSLATION ACCESS:     922065  HIT:     920892  MISS:       1173  HIT %:    99.8728  MISS %:   0.127214   MPKI: 0.02346
STLB TRANSLATION FROM L1D PREFETCHER ACCESS:     244883  HIT:     244883  MISS:          0  HIT %:        100  MISS %:          0   MPKI: 0
STLB PREFETCH  REQUESTED:          0  ISSUED:          0  USEFUL:          0  USELESS:          0
STLB USEFUL LOAD PREFETCHES:          0 PREFETCH ISSUED TO LOWER LEVEL:          0  ACCURACY: -nan
STLB TIMELY PREFETCHES:          0 LATE PREFETCHES: 0 DROPPED PREFETCHES: 0
STLB PREFETCHES SAME FILL-ORIGIN LEVEL: 0 DIFFERENT FILL-ORIGIN LEVEL: 0
STLB AVERAGE MISS LATENCY: 88.555 cycles
STLB RQ	ACCESS:    1278962	FORWARD:          0	MERGED:     112014	TO_CACHE:    1166948

STLB Hit, L1D data hit: 0
STLB Hit, L2C data hit: 0
STLB Hit, LLC data hit: 0
STLB Hit, LLC data miss: 0
STLB STLB hints to L2: 0
L1D TOTAL     ACCESS:   14541751  HIT:   13659446  MISS:     882305  HIT %:    93.9326  MISS %:    6.06739   MPKI: 17.6461
L1D LOAD      ACCESS:    7868114  HIT:    7262693  MISS:     605421  HIT %:    92.3054  MISS %:    7.69461   MPKI: 12.1084
L1D RFO       ACCESS:    6324444  HIT:    6214555  MISS:     109889  HIT %:    98.2625  MISS %:    1.73753   MPKI: 2.19778
L1D PREFETCH  ACCESS:     349193  HIT:     182198  MISS:     166995  HIT %:    52.1769  MISS %:    47.8231   MPKI: 3.3399
L1D PREFETCH  REQUESTED:     714693  ISSUED:     714656  USEFUL:      21771  USELESS:     145290
L1D USEFUL LOAD PREFETCHES:      21771 PREFETCH ISSUED TO LOWER LEVEL:     168130  ACCURACY: 12.9489
L1D TIMELY PREFETCHES:      21771 LATE PREFETCHES: 1115 DROPPED PREFETCHES: 0
L1D PREFETCHES SAME FILL-ORIGIN LEVEL: 168130 DIFFERENT FILL-ORIGIN LEVEL: 0
L1D AVERAGE MISS LATENCY: 47850.3 cycles
L1D RQ	ACCESS:   11178511	FORWARD:          0	MERGED:    3137026	TO_CACHE:    7887491
L1D WQ	ACCESS:    6515360	FORWARD:     154856	MERGED:      83096	TO_CACHE:    6432264
L1D PQ	ACCESS:     357759	FORWARD:          0	MERGED:          0	TO_CACHE:     356897

L1D UNIQUE REGIONS ACCESSED: 0
L1D REGIONS CONFLICTS: 0
L1D Cross Page Prefetch Requests: 0
L1D Same Page Prefetch Requests: 416363
L1D ROI Sum of L1D PQ occupancy: 4615927
L1D PREFETCHES PUSHED FROM L2C: 0
L1I TOTAL     ACCESS:    9872179  HIT:    6565917  MISS:    3306262  HIT %:    66.5093  MISS %:    33.4907   MPKI: 66.1252
L1I LOAD      ACCESS:    9872179  HIT:    6565917  MISS:    3306262  HIT %:    66.5093  MISS %:    33.4907   MPKI: 66.1252
L1I PREFETCH  REQUESTED:          0  ISSUED:          0  USEFUL:          0  USELESS:          0
L1I USEFUL LOAD PREFETCHES:          0 PREFETCH ISSUED TO LOWER LEVEL:          0  ACCURACY: -nan
L1I TIMELY PREFETCHES:          0 LATE PREFETCHES: 0 DROPPED PREFETCHES: 0
L1I PREFETCHES SAME FILL-ORIGIN LEVEL: 0 DIFFERENT FILL-ORIGIN LEVEL: 0
L1I AVERAGE MISS LATENCY: 14.6819 cycles
L1I RQ	ACCESS:   14722197	FORWARD:          0	MERGED:    4115746	TO_CACHE:   10606451

BTB TOTAL     ACCESS:    6353113  HIT:    5342180  MISS:    1010933  HIT %:    84.0876  MISS %:    15.9124   MPKI: 20.2187
BTB BRANCH_DIRECT_JUMP	ACCESS:     767599  HIT:     688313  MISS:      79286
BTB BRANCH_INDIRECT	ACCESS:     108584  HIT:      73824  MISS:      34760
BTB BRANCH_CONDITIONAL	ACCESS:    2951217  HIT:    2732156  MISS:     219061
BTB BRANCH_DIRECT_CALL	ACCESS:    1050916  HIT:     928179  MISS:     122737
BTB BRANCH_INDIRECT_CALL	ACCESS:     211941  HIT:     142942  MISS:      68999
BTB BRANCH_RETURN	ACCESS:    1262856  HIT:     776766  MISS:     486090
BTB BRANCH_OTHER ACCESS:          0  HIT:          0  MISS:          0

L2C TOTAL     ACCESS:    5009731  HIT:    4820739  MISS:     188992  HIT %:    96.2275  MISS %:     3.7725   MPKI: 3.77984
L2C LOAD      ACCESS:    3910561  HIT:    3798130  MISS:     112431  HIT %:    97.1249  MISS %:    2.87506   MPKI: 2.24862
L2C DATA LOAD MPKI: 0.97696
L2C INSTRUCTION LOAD MPKI: 1.27166
L2C RFO       ACCESS:     109869  HIT:      99550  MISS:      10319  HIT %:    90.6079  MISS %:    9.39209   MPKI: 0.20638
L2C PREFETCH  ACCESS:     715481  HIT:     654369  MISS:      61112  HIT %:    91.4586  MISS %:    8.54139   MPKI: 1.22224
L2C DATA PREFETCH MPKI: 1.22224
L2C INSTRUCTION PREFETCH MPKI: 0
L2C WRITEBACK ACCESS:     272608  HIT:     268013  MISS:       4595  HIT %:    98.3144  MISS %:    1.68557   MPKI: 0.0919
L2C LOAD TRANSLATION ACCESS:       1212  HIT:        677  MISS:        535  HIT %:    55.8581  MISS %:    44.1419   MPKI: 0.0107
L2C PREFETCH  REQUESTED:     554150  ISSUED:     554150  USEFUL:      19514  USELESS:      41827
L2C USEFUL LOAD PREFETCHES:      19514 PREFETCH ISSUED TO LOWER LEVEL:      61708  ACCURACY: 31.6231
L2C TIMELY PREFETCHES:      19514 LATE PREFETCHES: 596 DROPPED PREFETCHES: 0
L2C PREFETCHES SAME FILL-ORIGIN LEVEL: 43385 DIFFERENT FILL-ORIGIN LEVEL: 0
L2C AVERAGE MISS LATENCY: 38.6647 cycles
L2C RQ	ACCESS:    4021649	FORWARD:          0	MERGED:          0	TO_CACHE:    4021643
L2C WQ	ACCESS:     272608	FORWARD:          7	MERGED:          0	TO_CACHE:     272608
L2C PQ	ACCESS:     722280	FORWARD:          0	MERGED:       4015	TO_CACHE:     718264

L2C Instructions Evicting Data 23799
L2C Translations Evicting Data 494
L2C Data Evicting Data 97339
L2C Instructions Evicting Instructions 39631
L2C Translations Evicting Instructions 30
L2C Data Evicting Instructions 21944
L2C Instructions Evicting Translations 74
L2C Translations Evicting Translations 4
L2C Data Evicting Translations 535
L2C Dense regions hint from L2: 0
PSCL5 TOTAL     ACCESS:       1173  HIT:       1173  MISS:          0  HIT %:        100  MISS %:          0   MPKI: 0
PSCL5 LOAD TRANSLATION ACCESS:       1173  HIT:       1173  MISS:          0  HIT %:        100  MISS %:          0   MPKI: 0
PSCL5 PREFETCH  REQUESTED:          0  ISSUED:          0  USEFUL:          0  USELESS:          0
PSCL5 USEFUL LOAD PREFETCHES:          0 PREFETCH ISSUED TO LOWER LEVEL:          0  ACCURACY: -nan
PSCL5 TIMELY PREFETCHES:          0 LATE PREFETCHES: 0 DROPPED PREFETCHES: 0
PSCL5 PREFETCHES SAME FILL-ORIGIN LEVEL: 0 DIFFERENT FILL-ORIGIN LEVEL: 0

PSCL4 TOTAL     ACCESS:        994  HIT:        991  MISS:          3  HIT %:    99.6982  MISS %:   0.301811   MPKI: 6e-05
PSCL4 LOAD TRANSLATION ACCESS:        994  HIT:        991  MISS:          3  HIT %:    99.6982  MISS %:   0.301811   MPKI: 6e-05
PSCL4 PREFETCH  REQUESTED:          0  ISSUED:          0  USEFUL:          0  USELESS:          0
PSCL4 USEFUL LOAD PREFETCHES:          0 PREFETCH ISSUED TO LOWER LEVEL:          0  ACCURACY: -nan
PSCL4 TIMELY PREFETCHES:          0 LATE PREFETCHES: 0 DROPPED PREFETCHES: 0
PSCL4 PREFETCHES SAME FILL-ORIGIN LEVEL: 0 DIFFERENT FILL-ORIGIN LEVEL: 0

PSCL3 TOTAL     ACCESS:        994  HIT:        991  MISS:          3  HIT %:    99.6982  MISS %:   0.301811   MPKI: 6e-05
PSCL3 LOAD TRANSLATION ACCESS:        994  HIT:        991  MISS:          3  HIT %:    99.6982  MISS %:   0.301811   MPKI: 6e-05
PSCL3 PREFETCH  REQUESTED:          0  ISSUED:          0  USEFUL:          0  USELESS:          0
PSCL3 USEFUL LOAD PREFETCHES:          0 PREFETCH ISSUED TO LOWER LEVEL:          0  ACCURACY: -nan
PSCL3 TIMELY PREFETCHES:          0 LATE PREFETCHES: 0 DROPPED PREFETCHES: 0
PSCL3 PREFETCHES SAME FILL-ORIGIN LEVEL: 0 DIFFERENT FILL-ORIGIN LEVEL: 0

PSCL2 TOTAL     ACCESS:       1173  HIT:       1133  MISS:         40  HIT %:    96.5899  MISS %:    3.41006   MPKI: 0.0008
PSCL2 LOAD TRANSLATION ACCESS:       1173  HIT:       1133  MISS:         40  HIT %:    96.5899  MISS %:    3.41006   MPKI: 0.0008
PSCL2 PREFETCH  REQUESTED:          0  ISSUED:          0  USEFUL:          0  USELESS:          0
PSCL2 USEFUL LOAD PREFETCHES:          0 PREFETCH ISSUED TO LOWER LEVEL:          0  ACCURACY: -nan
PSCL2 TIMELY PREFETCHES:          0 LATE PREFETCHES: 0 DROPPED PREFETCHES: 0
PSCL2 PREFETCHES SAME FILL-ORIGIN LEVEL: 0 DIFFERENT FILL-ORIGIN LEVEL: 0

LLC TOTAL     ACCESS:     234788  HIT:     220271  MISS:      14517  HIT %:     93.817  MISS %:    6.18302   MPKI: 0.29034
LLC LOAD      ACCESS:     111877  HIT:     107412  MISS:       4465  HIT %:     96.009  MISS %:    3.99099   MPKI: 0.0893
LLC RFO       ACCESS:      10276  HIT:       9467  MISS:        809  HIT %:    92.1273  MISS %:    7.87271   MPKI: 0.01618
LLC PREFETCH  ACCESS:      61707  HIT:      52707  MISS:       9000  HIT %:    85.4149  MISS %:    14.5851   MPKI: 0.18
LLC WRITEBACK ACCESS:      50393  HIT:      50280  MISS:        113  HIT %:    99.7758  MISS %:   0.224237   MPKI: 0.00226
LLC LOAD TRANSLATION ACCESS:        535  HIT:        405  MISS:        130  HIT %:    75.7009  MISS %:    24.2991   MPKI: 0.0026
LLC PREFETCH  REQUESTED:          0  ISSUED:          0  USEFUL:       2785  USELESS:        331
LLC USEFUL LOAD PREFETCHES:       2785 PREFETCH ISSUED TO LOWER LEVEL:       9000  ACCURACY: 30.9444
LLC TIMELY PREFETCHES:       2785 LATE PREFETCHES: 0 DROPPED PREFETCHES: 0
LLC PREFETCHES SAME FILL-ORIGIN LEVEL: 0 DIFFERENT FILL-ORIGIN LEVEL: 0
LLC AVERAGE MISS LATENCY: 122.51 cycles
LLC RQ	ACCESS:     122689	FORWARD:          0	MERGED:          0	TO_CACHE:     122688
LLC WQ	ACCESS:      50393	FORWARD:          2	MERGED:          0	TO_CACHE:      50393
LLC PQ	ACCESS:      61708	FORWARD:          0	MERGED:          0	TO_CACHE:      61707

LLC Dense regions hint to LLC: 0

RAW hits: 865609
Loads Generated: 12044118
Loads sent to L1D: 11178511
Stores Generated: 6515355
Stores sent to L1D: 6515360
Major fault: 0 Minor fault: 1190
Allocated PAGES: 1190

stream: 
stream:times selected: 430746
stream:pref_filled: 112792
stream:pref_useful: 13049
stream:pref_late: 372
stream:misses: 7632
stream:misses_by_poll: 0

CS: 
CS:times selected: 6692
CS:pref_filled: 1487
CS:pref_useful: 1098
CS:pref_late: 313
CS:misses: 35
CS:misses_by_poll: 0

CPLX: 
CPLX:times selected: 426735
CPLX:pref_filled: 81140
CPLX:pref_useful: 9833
CPLX:pref_late: 506
CPLX:misses: 35661
CPLX:misses_by_poll: 2

NL_L1: 
NL:times selected: 813
NL:pref_filled: 221
NL:pref_useful: 13
NL:pref_late: 15
NL:misses: 295
NL:misses_by_poll: 0

total selections: 864986
total_filled: 166995
total_useful: 21771
total_late: 1571
total_polluted: 2
total_misses_after_warmup: 624798
conflicts: 3299894
Degree Incremented Times: 0
Degree Decremented Times: 115535

L1 IP Table Write Accesses: 4367745
L1 IP Table Read Accesses: 1067851
L1 RST Write Accesses: 374308
L1 RST Read Accesses: 748616
L1 CSPT Write Accesses: 374308
L1 CSPT Read Accesses: 745910
L1 RR Filter Tag Write Accesses: 357796
L1 RR Filter Tag Read Accesses: 16618833
L1 IP Table Tag Write Accesses: 7887491
L1 IP Table Tag Read Accesses: 7887491
L1 RST Tag Write Accesses: 0
L1 RST Tag Read Accesses: 4076446
L1 RR Filter Write Accesses: 0
L1 RR Filter Read Accesses: 588790
test: 196067
L2 IP Table Read Accesses: 977925
L2 IP Table Write Accesses: 1386154
L2 IP Table Tag Read Accesses: 767866
L2 IP Table Tag Write Accesses: 767866

DRAM Statistics
 CHANNEL 0
 RQ ROW_BUFFER_HIT:       7402  ROW_BUFFER_MISS:       7002
 DBUS_CONGESTED:          0
 WQ ROW_BUFFER_HIT:          7  ROW_BUFFER_MISS:         99  FULL:          0

 AVG_CONGESTED_CYCLE: -
 All warmup complete: 2
Channel 0 Bank busy for read cycles: 0
Channel 0 Bank busy for write cycles: 0
Channel 0
Rank 0
0banks busy for read cycles: 100461259
0banks busy for write cycles: 81
1banks busy for read cycles: 463974
1banks busy for write cycles: 11862
2banks busy for read cycles: 237321
2banks busy for write cycles: 2135
3banks busy for read cycles: 70954
3banks busy for write cycles: 162
4banks busy for read cycles: 41430
4banks busy for write cycles: 366
5banks busy for read cycles: 14555
5banks busy for write cycles: 146
6banks busy for read cycles: 3566
6banks busy for write cycles: 0
7banks busy for read cycles: 1176
7banks busy for write cycles: 0
8banks busy for read cycles: 102
8banks busy for write cycles: 0

CPU 0 Branch Prediction Accuracy: 93.1694% MPKI: 13.3539 Average ROB Occupancy at Mispredict: 17.7185
Branch types
NOT_BRANCH: 40224725 80.4494%
BRANCH_DIRECT_JUMP: 767599 1.5352%
BRANCH_INDIRECT: 108584 0.217168%
BRANCH_CONDITIONAL: 6373090 12.7462%
BRANCH_DIRECT_CALL: 1050916 2.10183%
BRANCH_INDIRECT_CALL: 211941 0.423882%
BRANCH_RETURN: 1262856 2.52571%
BRANCH_OTHER: 0 0%

@sumon_overall_L1D     21771      1115    145290    166995    714656    714693
@Sumon_Early_by_class_L1D     10832      1058      8707         2
@Sumon_Late_by_class_L1D        97       313       371         2

@Sumon_Early_by_cycle_L1D      6476      3503      2856      1228      2668       780       705       655       255      1812       607       226
@Sumon_Late_by_cycle_L1D      1092        23         0         0         0         0         0         0         0         0         0         0
@Sumon_Early_stream_L1D      3815      2810      1643       527       496       120       268       199        96       191       494       173
@Sumon_Early_CS_L1D       550       171        49       113        50        14         8        11        30        62         0         0
@Sumon_Early_CPLX_L1D      1755       356       968       248      2043       635       427       439       128      1553       106        49
@Sumon_Late_stream_L1D        97         0         0         0         0         0         0         0         0         0         0         0
@Sumon_Late_CS_L1D       311         2         0         0         0         0         0         0         0         0         0         0
@Sumon_Late_CPLX_L1D       353        18         0         0         0         0         0         0         0         0         0         0
@sumon_overall_L2C     19514       596     41827     61112    554150    554150
@Sumon_Early_by_class_L2C      1184       101       820         0
@Sumon_Late_by_class_L2C         0         0         0         0

@Sumon_Early_by_cycle_L2C      2521      1681      3585      2138       394      1761       385        69       877       919      2569      2615
@Sumon_Late_by_cycle_L2C       518        78         0         0         0         0         0         0         0         0         0         0
@Sumon_Early_stream_L2C         0         0         0         0         0         0         0         0         1        10       462       711
@Sumon_Early_CS_L2C         0         0         0         0         0         0         0         0         0        24         7        70
@Sumon_Early_CPLX_L2C         0         0         0         0         0         0         0         0         1        21        70       728
@Sumon_Late_stream_L2C         0         0         0         0         0         0         0         0         0         0         0         0
@Sumon_Late_CS_L2C         0         0         0         0         0         0         0         0         0         0         0         0
@Sumon_Late_CPLX_L2C         0         0         0         0         0         0         0         0         0         0         0         0
DRAM PAGES: 1048576
Allocated PAGES: 1190
