
*** ChampSim Multicore Out-of-Order Simulator ***

Warmup Instructions: 10000000
Simulation Instructions: 50000000
Number of CPUs: 1
LLC sets: 2048
LLC ways: 16
Off-chip DRAM Size: 4096 MB Channels: 1 Width: 64-bit Data Rate: 6400 MT/s
CPU 0 runs traces/SPEC2017/605.mcf_s-994B.champsimtrace.xz
.xz
CPU 0 Bimodal branch predictor
BTB has LRU replacement policy
ITLB has LRU replacement policy
DTLB has LRU replacement policy
STLB has LRU replacement policy
L1I has LRU replacement policy
IP Table Entries: 256
L1D has LRU replacement policy
IP_Table L2 entries: 256
Initialize DRRIP state for L2C
LLC has LRU replacement policy
Heartbeat CPU 0 instructions: 10000000 cycles: 3241930 heartbeat IPC: 3.08458 cumulative IPC: 3.08458 (Simulation time: 0 hr 28 min 44 sec) 

Warmup complete CPU 0 instructions: 10000004 cycles: 3241931 (Simulation time: 0 hr 28 min 44 sec) 

Heartbeat CPU 0 instructions: 20000000 cycles: 39338311 heartbeat IPC: 0.277036 cumulative IPC: 0.277036 (Simulation time: 0 hr 52 min 56 sec) 
Heartbeat CPU 0 instructions: 30000003 cycles: 78160203 heartbeat IPC: 0.257587 cumulative IPC: 0.266958 (Simulation time: 1 hr 16 min 57 sec) 
Heartbeat CPU 0 instructions: 40000001 cycles: 113077510 heartbeat IPC: 0.286391 cumulative IPC: 0.273136 (Simulation time: 1 hr 40 min 45 sec) 
Heartbeat CPU 0 instructions: 50000001 cycles: 204349902 heartbeat IPC: 0.109562 cumulative IPC: 0.198898 (Simulation time: 2 hr 3 min 39 sec) 
Heartbeat CPU 0 instructions: 60000000 cycles: 249611860 heartbeat IPC: 0.220936 cumulative IPC: 0.202947 (Simulation time: 2 hr 13 min 34 sec) 
Finished CPU 0 instructions: 50000000 cycles: 246369935 cumulative IPC: 0.202947 (Simulation time: 2 hr 13 min 34 sec) 

ChampSim completed all CPUs

Region of Interest Statistics

CPU 0 cumulative IPC: 0.202947 instructions: 50000000 cycles: 246369935
ITLB TOTAL     ACCESS:    8952396  HIT:    8952396  MISS:          0  HIT %:        100  MISS %:          0   MPKI: 0
ITLB LOAD TRANSLATION ACCESS:    8952396  HIT:    8952396  MISS:          0  HIT %:        100  MISS %:          0   MPKI: 0
ITLB PREFETCH  REQUESTED:          0  ISSUED:          0  USEFUL:          0  USELESS:          0
ITLB USEFUL LOAD PREFETCHES:          0 PREFETCH ISSUED TO LOWER LEVEL:          0  ACCURACY: -nan
ITLB TIMELY PREFETCHES:          0 LATE PREFETCHES: 0 DROPPED PREFETCHES: 0
ITLB PREFETCHES SAME FILL-ORIGIN LEVEL: 0 DIFFERENT FILL-ORIGIN LEVEL: 0
ITLB AVERAGE MISS LATENCY: -nan cycles
ITLB RQ	ACCESS:    9152029	FORWARD:          0	MERGED:     199635	TO_CACHE:    8952394

DTLB TOTAL     ACCESS:   16536792  HIT:   15802662  MISS:     734130  HIT %:    95.5606  MISS %:    4.43937   MPKI: 14.6826
DTLB LOAD TRANSLATION ACCESS:   16536792  HIT:   15802662  MISS:     734130  HIT %:    95.5606  MISS %:    4.43937   MPKI: 14.6826
DTLB PREFETCH  REQUESTED:          0  ISSUED:          0  USEFUL:          0  USELESS:          0
DTLB USEFUL LOAD PREFETCHES:          0 PREFETCH ISSUED TO LOWER LEVEL:          0  ACCURACY: -nan
DTLB TIMELY PREFETCHES:          0 LATE PREFETCHES: 0 DROPPED PREFETCHES: 0
DTLB PREFETCHES SAME FILL-ORIGIN LEVEL: 0 DIFFERENT FILL-ORIGIN LEVEL: 0
DTLB AVERAGE MISS LATENCY: 75.3339 cycles
DTLB RQ	ACCESS:   19373238	FORWARD:          0	MERGED:    2687981	TO_CACHE:   16685257

STLB TOTAL     ACCESS:    3724430  HIT:    3352077  MISS:     372353  HIT %:    90.0024  MISS %:    9.99758   MPKI: 7.44706
STLB LOAD TRANSLATION ACCESS:     734130  HIT:     361872  MISS:     372258  HIT %:    49.2926  MISS %:    50.7074   MPKI: 7.44516
STLB TRANSLATION FROM L1D PREFETCHER ACCESS:    2990300  HIT:    2990205  MISS:         95  HIT %:    99.9968  MISS %: 0.00317694   MPKI: 0.0019
STLB PREFETCH  REQUESTED:          0  ISSUED:          0  USEFUL:         92  USELESS:          3
STLB USEFUL LOAD PREFETCHES:         92 PREFETCH ISSUED TO LOWER LEVEL:          0  ACCURACY: inf
STLB TIMELY PREFETCHES:         92 LATE PREFETCHES: 0 DROPPED PREFETCHES: 0
STLB PREFETCHES SAME FILL-ORIGIN LEVEL: 0 DIFFERENT FILL-ORIGIN LEVEL: 0
STLB AVERAGE MISS LATENCY: 130.157 cycles
STLB RQ	ACCESS:    4476062	FORWARD:          0	MERGED:     751565	TO_CACHE:    3724497

STLB Hit, L1D data hit: 0
STLB Hit, L2C data hit: 0
STLB Hit, LLC data hit: 0
STLB Hit, LLC data miss: 0
STLB STLB hints to L2: 0
L1D TOTAL     ACCESS:   22626256  HIT:   19371615  MISS:    3254641  HIT %:    85.6156  MISS %:    14.3844   MPKI: 65.0928
L1D LOAD      ACCESS:   14256205  HIT:   12604087  MISS:    1652118  HIT %:    88.4112  MISS %:    11.5888   MPKI: 33.0424
L1D RFO       ACCESS:    5068280  HIT:    5054586  MISS:      13694  HIT %:    99.7298  MISS %:    0.27019   MPKI: 0.27388
L1D PREFETCH  ACCESS:    3301771  HIT:    1712942  MISS:    1588829  HIT %:    51.8795  MISS %:    48.1205   MPKI: 31.7766
L1D PREFETCH  REQUESTED:    7486224  ISSUED:    7486224  USEFUL:     237365  USELESS:    1351397
L1D USEFUL LOAD PREFETCHES:     237365 PREFETCH ISSUED TO LOWER LEVEL:    1764280  ACCURACY: 13.4539
L1D TIMELY PREFETCHES:     237365 LATE PREFETCHES: 175194 DROPPED PREFETCHES: 0
L1D PREFETCHES SAME FILL-ORIGIN LEVEL: 1764280 DIFFERENT FILL-ORIGIN LEVEL: 0
L1D AVERAGE MISS LATENCY: 5.89416e+06 cycles
L1D RQ	ACCESS:   17010416	FORWARD:          0	MERGED:    1600110	TO_CACHE:   14282212
L1D WQ	ACCESS:    5114926	FORWARD:    1130454	MERGED:      23900	TO_CACHE:    5091026
L1D PQ	ACCESS:    3744292	FORWARD:          0	MERGED:          0	TO_CACHE:    3741932

L1D UNIQUE REGIONS ACCESSED: 0
L1D REGIONS CONFLICTS: 0
L1D Cross Page Prefetch Requests: 0
L1D Same Page Prefetch Requests: 4418567
L1D ROI Sum of L1D PQ occupancy: 48636288
L1D PREFETCHES PUSHED FROM L2C: 0
L1I TOTAL     ACCESS:    9152031  HIT:    9152031  MISS:          0  HIT %:        100  MISS %:          0   MPKI: 0
L1I LOAD      ACCESS:    9152031  HIT:    9152031  MISS:          0  HIT %:        100  MISS %:          0   MPKI: 0
L1I PREFETCH  REQUESTED:          0  ISSUED:          0  USEFUL:          0  USELESS:          0
L1I USEFUL LOAD PREFETCHES:          0 PREFETCH ISSUED TO LOWER LEVEL:          0  ACCURACY: -nan
L1I TIMELY PREFETCHES:          0 LATE PREFETCHES: 0 DROPPED PREFETCHES: 0
L1I PREFETCHES SAME FILL-ORIGIN LEVEL: 0 DIFFERENT FILL-ORIGIN LEVEL: 0
L1I AVERAGE MISS LATENCY: -nan cycles
L1I RQ	ACCESS:   14773779	FORWARD:          0	MERGED:    5621750	TO_CACHE:    9152029

BTB TOTAL     ACCESS:   11195514  HIT:   10468271  MISS:     727243  HIT %:    93.5042  MISS %:    6.49584   MPKI: 14.5449
BTB BRANCH_DIRECT_JUMP	ACCESS:    1118881  HIT:    1118860  MISS:         21
BTB BRANCH_INDIRECT	ACCESS:          0  HIT:          0  MISS:          0
BTB BRANCH_CONDITIONAL	ACCESS:    6895963  HIT:    6895921  MISS:         42
BTB BRANCH_DIRECT_CALL	ACCESS:    1540838  HIT:    1540825  MISS:         13
BTB BRANCH_INDIRECT_CALL	ACCESS:      49500  HIT:      49492  MISS:          8
BTB BRANCH_RETURN	ACCESS:    1590332  HIT:     863173  MISS:     727159
BTB BRANCH_OTHER ACCESS:          0  HIT:          0  MISS:          0

L2C TOTAL     ACCESS:    4288978  HIT:    1771513  MISS:    2517465  HIT %:    41.3038  MISS %:    58.6962   MPKI: 50.3493
L2C LOAD      ACCESS:    1476923  HIT:     430803  MISS:    1046120  HIT %:     29.169  MISS %:     70.831   MPKI: 20.9224
L2C DATA LOAD MPKI: 20.9224
L2C INSTRUCTION LOAD MPKI: 0
L2C RFO       ACCESS:      13438  HIT:      11371  MISS:       2067  HIT %:    84.6182  MISS %:    15.3818   MPKI: 0.04134
L2C PREFETCH  ACCESS:    2047292  HIT:     705032  MISS:    1342260  HIT %:    34.4373  MISS %:    65.5627   MPKI: 26.8452
L2C DATA PREFETCH MPKI: 26.8452
L2C INSTRUCTION PREFETCH MPKI: 0
L2C WRITEBACK ACCESS:     142474  HIT:     138334  MISS:       4140  HIT %:    97.0942  MISS %:    2.90579   MPKI: 0.0828
L2C LOAD TRANSLATION ACCESS:     608703  HIT:     485904  MISS:     122799  HIT %:    79.8261  MISS %:    20.1739   MPKI: 2.45598
L2C TRANSLATION FROM L1D PREFETCHER ACCESS:        148  HIT:         69  MISS:         79  HIT %:    46.6216  MISS %:    53.3784   MPKI: 0.00158
L2C PREFETCH  REQUESTED:     306183  ISSUED:     306183  USEFUL:      21184  USELESS:    1321517
L2C USEFUL LOAD PREFETCHES:      21184 PREFETCH ISSUED TO LOWER LEVEL:    1342265  ACCURACY: 1.57823
L2C TIMELY PREFETCHES:      21184 LATE PREFETCHES: 4 DROPPED PREFETCHES: 0
L2C PREFETCHES SAME FILL-ORIGIN LEVEL: 78435 DIFFERENT FILL-ORIGIN LEVEL: 0
L2C AVERAGE MISS LATENCY: 156.931 cycles
L2C RQ	ACCESS:    2099213	FORWARD:          0	MERGED:          0	TO_CACHE:    2099212
L2C WQ	ACCESS:     142474	FORWARD:          6	MERGED:          0	TO_CACHE:     142474
L2C PQ	ACCESS:    2070463	FORWARD:          0	MERGED:      23115	TO_CACHE:    2047343

L2C Instructions Evicting Data 0
L2C Translations Evicting Data 115450
L2C Data Evicting Data 2275763
L2C Instructions Evicting Instructions 0
L2C Translations Evicting Instructions 0
L2C Data Evicting Instructions 0
L2C Instructions Evicting Translations 0
L2C Translations Evicting Translations 7428
L2C Data Evicting Translations 114684
L2C Dense regions hint from L2: 0
PSCL5 TOTAL     ACCESS:     372353  HIT:     372353  MISS:          0  HIT %:        100  MISS %:          0   MPKI: 0
PSCL5 LOAD TRANSLATION ACCESS:     372258  HIT:     372258  MISS:          0  HIT %:        100  MISS %:          0   MPKI: 0
PSCL5 TRANSLATION FROM L1D PREFETCHER ACCESS:         95  HIT:         95  MISS:          0  HIT %:        100  MISS %:          0   MPKI: 0
PSCL5 PREFETCH  REQUESTED:          0  ISSUED:          0  USEFUL:          0  USELESS:          0
PSCL5 USEFUL LOAD PREFETCHES:          0 PREFETCH ISSUED TO LOWER LEVEL:          0  ACCURACY: -nan
PSCL5 TIMELY PREFETCHES:          0 LATE PREFETCHES: 0 DROPPED PREFETCHES: 0
PSCL5 PREFETCHES SAME FILL-ORIGIN LEVEL: 0 DIFFERENT FILL-ORIGIN LEVEL: 0

PSCL4 TOTAL     ACCESS:     372353  HIT:     372353  MISS:          0  HIT %:        100  MISS %:          0   MPKI: 0
PSCL4 LOAD TRANSLATION ACCESS:     372258  HIT:     372258  MISS:          0  HIT %:        100  MISS %:          0   MPKI: 0
PSCL4 TRANSLATION FROM L1D PREFETCHER ACCESS:         95  HIT:         95  MISS:          0  HIT %:        100  MISS %:          0   MPKI: 0
PSCL4 PREFETCH  REQUESTED:          0  ISSUED:          0  USEFUL:          0  USELESS:          0
PSCL4 USEFUL LOAD PREFETCHES:          0 PREFETCH ISSUED TO LOWER LEVEL:          0  ACCURACY: -nan
PSCL4 TIMELY PREFETCHES:          0 LATE PREFETCHES: 0 DROPPED PREFETCHES: 0
PSCL4 PREFETCHES SAME FILL-ORIGIN LEVEL: 0 DIFFERENT FILL-ORIGIN LEVEL: 0

PSCL3 TOTAL     ACCESS:     372353  HIT:     372353  MISS:          0  HIT %:        100  MISS %:          0   MPKI: 0
PSCL3 LOAD TRANSLATION ACCESS:     372258  HIT:     372258  MISS:          0  HIT %:        100  MISS %:          0   MPKI: 0
PSCL3 TRANSLATION FROM L1D PREFETCHER ACCESS:         95  HIT:         95  MISS:          0  HIT %:        100  MISS %:          0   MPKI: 0
PSCL3 PREFETCH  REQUESTED:          0  ISSUED:          0  USEFUL:          0  USELESS:          0
PSCL3 USEFUL LOAD PREFETCHES:          0 PREFETCH ISSUED TO LOWER LEVEL:          0  ACCURACY: -nan
PSCL3 TIMELY PREFETCHES:          0 LATE PREFETCHES: 0 DROPPED PREFETCHES: 0
PSCL3 PREFETCHES SAME FILL-ORIGIN LEVEL: 0 DIFFERENT FILL-ORIGIN LEVEL: 0

PSCL2 TOTAL     ACCESS:     372353  HIT:     135345  MISS:     237008  HIT %:    36.3486  MISS %:    63.6514   MPKI: 4.74016
PSCL2 LOAD TRANSLATION ACCESS:     372311  HIT:     135303  MISS:     237008  HIT %:    36.3414  MISS %:    63.6586   MPKI: 4.74016
PSCL2 TRANSLATION FROM L1D PREFETCHER ACCESS:         42  HIT:         42  MISS:          0  HIT %:        100  MISS %:          0   MPKI: 0
PSCL2 PREFETCH  REQUESTED:          0  ISSUED:          0  USEFUL:          0  USELESS:          0
PSCL2 USEFUL LOAD PREFETCHES:          0 PREFETCH ISSUED TO LOWER LEVEL:          0  ACCURACY: -nan
PSCL2 TIMELY PREFETCHES:          0 LATE PREFETCHES: 0 DROPPED PREFETCHES: 0
PSCL2 PREFETCHES SAME FILL-ORIGIN LEVEL: 0 DIFFERENT FILL-ORIGIN LEVEL: 0

LLC TOTAL     ACCESS:    2609791  HIT:     710732  MISS:    1899059  HIT %:    27.2333  MISS %:    72.7667   MPKI: 37.9812
LLC LOAD      ACCESS:    1046118  HIT:     287451  MISS:     758667  HIT %:    27.4779  MISS %:    72.5221   MPKI: 15.1733
LLC RFO       ACCESS:       2064  HIT:       1620  MISS:        444  HIT %:    78.4884  MISS %:    21.5116   MPKI: 0.00888
LLC PREFETCH  ACCESS:    1342263  HIT:     304222  MISS:    1038041  HIT %:    22.6649  MISS %:    77.3351   MPKI: 20.7608
LLC WRITEBACK ACCESS:      96468  HIT:      94847  MISS:       1621  HIT %:    98.3197  MISS %:    1.68035   MPKI: 0.03242
LLC LOAD TRANSLATION ACCESS:     122799  HIT:      22554  MISS:     100245  HIT %:    18.3666  MISS %:    81.6334   MPKI: 2.0049
LLC TRANSLATION FROM L1D PREFETCHER ACCESS:         79  HIT:         38  MISS:         41  HIT %:    48.1013  MISS %:    51.8987   MPKI: 0.00082
LLC PREFETCH  REQUESTED:          0  ISSUED:          0  USEFUL:      17547  USELESS:    1020721
LLC USEFUL LOAD PREFETCHES:      17547 PREFETCH ISSUED TO LOWER LEVEL:    1038042  ACCURACY: 1.69039
LLC TIMELY PREFETCHES:      17547 LATE PREFETCHES: 0 DROPPED PREFETCHES: 0
LLC PREFETCHES SAME FILL-ORIGIN LEVEL: 0 DIFFERENT FILL-ORIGIN LEVEL: 0
LLC AVERAGE MISS LATENCY: 167.274 cycles
LLC RQ	ACCESS:    1171061	FORWARD:          0	MERGED:          0	TO_CACHE:    1171060
LLC WQ	ACCESS:      96468	FORWARD:          2	MERGED:          0	TO_CACHE:      96468
LLC PQ	ACCESS:    1342265	FORWARD:          0	MERGED:          0	TO_CACHE:    1342264

LLC Dense regions hint to LLC: 0

RAW hits: 405569
Loads Generated: 17415986
Loads sent to L1D: 17010416
Stores Generated: 5114922
Stores sent to L1D: 5114926
Major fault: 0 Minor fault: 119985
Allocated PAGES: 119985

stream: 
stream:times selected: 5446766
stream:pref_filled: 1276758
stream:pref_useful: 166440
stream:pref_late: 154277
stream:misses: 474903
stream:misses_by_poll: 0

CS: 
CS:times selected: 277340
CS:pref_filled: 123214
CS:pref_useful: 118315
CS:pref_late: 20
CS:misses: 774
CS:misses_by_poll: 61

CPLX: 
CPLX:times selected: 5124152
CPLX:pref_filled: 435427
CPLX:pref_useful: 23925
CPLX:pref_late: 1599
CPLX:misses: 1421343
CPLX:misses_by_poll: 2597

NL_L1: 
NL:times selected: 54407
NL:pref_filled: 16659
NL:pref_useful: 3040
NL:pref_late: 2293
NL:misses: 19414
NL:misses_by_poll: 1

total selections: 10902665
total_filled: 1588829
total_useful: 237365
total_late: 178746
total_polluted: 2659
total_misses_after_warmup: 1678123
conflicts: 49554
Degree Incremented Times: 54829
Degree Decremented Times: 197550

L1 IP Table Write Accesses: 14180643
L1 IP Table Read Accesses: 14131089
L1 RST Write Accesses: 4552690
L1 RST Read Accesses: 9105380
L1 CSPT Write Accesses: 4552690
L1 CSPT Read Accesses: 8832480
L1 RR Filter Tag Write Accesses: 3744292
L1 RR Filter Tag Read Accesses: 158553672
L1 IP Table Tag Write Accesses: 14282210
L1 IP Table Tag Read Accesses: 14282210
L1 RST Tag Write Accesses: 0
L1 RST Tag Read Accesses: 42817320
L1 RR Filter Write Accesses: 0
L1 RR Filter Read Accesses: 5793870
test: 3173526
L2 IP Table Read Accesses: 6477624
L2 IP Table Write Accesses: 5000913
L2 IP Table Tag Read Accesses: 3239093
L2 IP Table Tag Write Accesses: 3239093

DRAM Statistics
 CHANNEL 0
 RQ ROW_BUFFER_HIT:     263163  ROW_BUFFER_MISS:    1634271
 DBUS_CONGESTED:        322
 WQ ROW_BUFFER_HIT:      19834  ROW_BUFFER_MISS:      49403  FULL:          0

 AVG_CONGESTED_CYCLE: 4
 All warmup complete: 2
Channel 0 Bank busy for read cycles: 0
Channel 0 Bank busy for write cycles: 0
Channel 0
Rank 0
0banks busy for read cycles: 103304561
0banks busy for write cycles: 53158
1banks busy for read cycles: 55194571
1banks busy for write cycles: 10307940
2banks busy for read cycles: 41711528
2banks busy for write cycles: 1980061
3banks busy for read cycles: 20890776
3banks busy for write cycles: 361421
4banks busy for read cycles: 7647524
4banks busy for write cycles: 69449
5banks busy for read cycles: 3057512
5banks busy for write cycles: 18927
6banks busy for read cycles: 1329509
6banks busy for write cycles: 2324
7banks busy for read cycles: 366846
7banks busy for write cycles: 228
8banks busy for read cycles: 73601
8banks busy for write cycles: 0

CPU 0 Branch Prediction Accuracy: 92.7543% MPKI: 18.162 Average ROB Occupancy at Mispredict: 16.5888
Branch types
NOT_BRANCH: 37466601 74.9332%
BRANCH_DIRECT_JUMP: 1118881 2.23776%
BRANCH_INDIRECT: 0 0%
BRANCH_CONDITIONAL: 8233493 16.467%
BRANCH_DIRECT_CALL: 1540838 3.08168%
BRANCH_INDIRECT_CALL: 49500 0.099%
BRANCH_RETURN: 1590332 3.18066%
BRANCH_OTHER: 0 0%

@sumon_overall_L1D    237365    175194   1351397   1588829   7486224   7486224
@Sumon_Early_by_class_L1D    110575    103170     21627      2239
@Sumon_Late_by_class_L1D    150976        17      1567      2239

@Sumon_Early_by_cycle_L1D     67119     17733      5583      3142      2815     16060     26839     38003     42953     12915      3420       783
@Sumon_Late_by_cycle_L1D    126096     44416      4666        15         1         0         0         0         0         0         0         0
@Sumon_Early_stream_L1D     65632     16733      4840      2404      1927      6376      4488      3898      2635      1272       303        67
@Sumon_Early_CS_L1D        74       312       222       327       451      7736     20226     31075     36146      6307       199        95
@Sumon_Early_CPLX_L1D       755       488       439       352       378      1576      1796      2850      4138      5321      2914       620
@Sumon_Late_stream_L1D    103027     43383      4550        15         1         0         0         0         0         0         0         0
@Sumon_Late_CS_L1D        11         6         0         0         0         0         0         0         0         0         0         0
@Sumon_Late_CPLX_L1D      1093       412        62         0         0         0         0         0         0         0         0         0
@sumon_overall_L2C     21184         4   1321517   1342339    306183    306183
@Sumon_Early_by_class_L2C     16104      2829      1868         0
@Sumon_Late_by_class_L2C         0         2         0         0

@Sumon_Early_by_cycle_L2C         2         4         0         2         4        16        35        44       160      1563      3025     16329
@Sumon_Late_by_cycle_L2C         1         3         0         0         0         0         0         0         0         0         0         0
@Sumon_Early_stream_L2C         1         0         0         0         0         0         0         2       106      1210      2445     12340
@Sumon_Early_CS_L2C         0         4         0         2         4        16        33        40        29       124       219      2358
@Sumon_Early_CPLX_L2C         0         0         0         0         0         0         0         2        18       187       289      1372
@Sumon_Late_stream_L2C         0         0         0         0         0         0         0         0         0         0         0         0
@Sumon_Late_CS_L2C         0         2         0         0         0         0         0         0         0         0         0         0
@Sumon_Late_CPLX_L2C         0         0         0         0         0         0         0         0         0         0         0         0
DRAM PAGES: 1048576
Allocated PAGES: 119985
