
*** ChampSim Multicore Out-of-Order Simulator ***

Warmup Instructions: 10000000
Simulation Instructions: 50000000
Number of CPUs: 1
LLC sets: 2048
LLC ways: 16
Off-chip DRAM Size: 4096 MB Channels: 1 Width: 64-bit Data Rate: 6400 MT/s
CPU 0 runs traces/SPEC2017/605.mcf_s-1644B.champsimtrace.xz
.xz
CPU 0 Bimodal branch predictor
BTB has LRU replacement policy
ITLB has LRU replacement policy
DTLB has LRU replacement policy
STLB has LRU replacement policy
L1I has LRU replacement policy
IP Table Entries: 256
L1D has LRU replacement policy
IP_Table L2 entries: 256
Initialize DRRIP state for L2C
LLC has LRU replacement policy
Heartbeat CPU 0 instructions: 10000003 cycles: 5102587 heartbeat IPC: 1.95979 cumulative IPC: 1.95979 (Simulation time: 0 hr 38 min 17 sec) 

Warmup complete CPU 0 instructions: 10000003 cycles: 5102587 (Simulation time: 0 hr 38 min 17 sec) 

Heartbeat CPU 0 instructions: 20000001 cycles: 68295885 heartbeat IPC: 0.158245 cumulative IPC: 0.158245 (Simulation time: 1 hr 38 min 58 sec) 
Heartbeat CPU 0 instructions: 30000000 cycles: 133996446 heartbeat IPC: 0.152206 cumulative IPC: 0.155166 (Simulation time: 2 hr 13 min 31 sec) 
Heartbeat CPU 0 instructions: 40000000 cycles: 200213779 heartbeat IPC: 0.151018 cumulative IPC: 0.153758 (Simulation time: 2 hr 27 min 8 sec) 
Heartbeat CPU 0 instructions: 50000002 cycles: 266541961 heartbeat IPC: 0.150766 cumulative IPC: 0.152999 (Simulation time: 2 hr 32 min 3 sec) 
Heartbeat CPU 0 instructions: 60000001 cycles: 331778028 heartbeat IPC: 0.153289 cumulative IPC: 0.153057 (Simulation time: 2 hr 33 min 54 sec) 
Finished CPU 0 instructions: 50000002 cycles: 326675442 cumulative IPC: 0.153057 (Simulation time: 2 hr 33 min 54 sec) 

ChampSim completed all CPUs

Region of Interest Statistics

CPU 0 cumulative IPC: 0.153057 instructions: 50000002 cycles: 326675442
ITLB TOTAL     ACCESS:    8878322  HIT:    8878322  MISS:          0  HIT %:        100  MISS %:          0   MPKI: 0
ITLB LOAD TRANSLATION ACCESS:    8878322  HIT:    8878322  MISS:          0  HIT %:        100  MISS %:          0   MPKI: 0
ITLB PREFETCH  REQUESTED:          0  ISSUED:          0  USEFUL:          0  USELESS:          0
ITLB USEFUL LOAD PREFETCHES:          0 PREFETCH ISSUED TO LOWER LEVEL:          0  ACCURACY: -nan
ITLB TIMELY PREFETCHES:          0 LATE PREFETCHES: 0 DROPPED PREFETCHES: 0
ITLB PREFETCHES SAME FILL-ORIGIN LEVEL: 0 DIFFERENT FILL-ORIGIN LEVEL: 0
ITLB AVERAGE MISS LATENCY: -nan cycles
ITLB RQ	ACCESS:    8915521	FORWARD:          0	MERGED:      37199	TO_CACHE:    8878322

DTLB TOTAL     ACCESS:   20482459  HIT:   19002267  MISS:    1480192  HIT %:    92.7734  MISS %:    7.22663   MPKI: 29.6038
DTLB LOAD TRANSLATION ACCESS:   20482459  HIT:   19002267  MISS:    1480192  HIT %:    92.7734  MISS %:    7.22663   MPKI: 29.6038
DTLB PREFETCH  REQUESTED:          0  ISSUED:          0  USEFUL:          0  USELESS:          0
DTLB USEFUL LOAD PREFETCHES:          0 PREFETCH ISSUED TO LOWER LEVEL:          0  ACCURACY: -nan
DTLB TIMELY PREFETCHES:          0 LATE PREFETCHES: 0 DROPPED PREFETCHES: 0
DTLB PREFETCHES SAME FILL-ORIGIN LEVEL: 0 DIFFERENT FILL-ORIGIN LEVEL: 0
DTLB AVERAGE MISS LATENCY: 1004.72 cycles
DTLB RQ	ACCESS:   32106777	FORWARD:          0	MERGED:    3947621	TO_CACHE:   28159156

STLB TOTAL     ACCESS:    3648273  HIT:    2456873  MISS:    1191400  HIT %:    67.3435  MISS %:    32.6565   MPKI: 23.828
STLB LOAD TRANSLATION ACCESS:    1480192  HIT:     288792  MISS:    1191400  HIT %:    19.5104  MISS %:    80.4896   MPKI: 23.828
STLB TRANSLATION FROM L1D PREFETCHER ACCESS:    2168081  HIT:    2168081  MISS:          0  HIT %:        100  MISS %:          0   MPKI: 0
STLB PREFETCH  REQUESTED:          0  ISSUED:          0  USEFUL:          0  USELESS:          0
STLB USEFUL LOAD PREFETCHES:          0 PREFETCH ISSUED TO LOWER LEVEL:          0  ACCURACY: -nan
STLB TIMELY PREFETCHES:          0 LATE PREFETCHES: 0 DROPPED PREFETCHES: 0
STLB PREFETCHES SAME FILL-ORIGIN LEVEL: 0 DIFFERENT FILL-ORIGIN LEVEL: 0
STLB AVERAGE MISS LATENCY: 1236.76 cycles
STLB RQ	ACCESS:    4123301	FORWARD:          0	MERGED:     475025	TO_CACHE:    3648276

STLB Hit, L1D data hit: 0
STLB Hit, L2C data hit: 0
STLB Hit, LLC data hit: 0
STLB Hit, LLC data miss: 0
STLB STLB hints to L2: 0
L1D TOTAL     ACCESS:   26965492  HIT:   21363071  MISS:    5602421  HIT %:    79.2237  MISS %:    20.7763   MPKI: 112.048
L1D LOAD      ACCESS:   14599219  HIT:   13401590  MISS:    1197629  HIT %:    91.7966  MISS %:    8.20338   MPKI: 23.9526
L1D RFO       ACCESS:    9840483  HIT:    7654086  MISS:    2186397  HIT %:    77.7816  MISS %:    22.2184   MPKI: 43.7279
L1D PREFETCH  ACCESS:    2525790  HIT:     307395  MISS:    2218395  HIT %:    12.1703  MISS %:    87.8297   MPKI: 44.3679
L1D PREFETCH  REQUESTED:    5286214  ISSUED:    5286214  USEFUL:    1118677  USELESS:    1099700
L1D USEFUL LOAD PREFETCHES:    1118677 PREFETCH ISSUED TO LOWER LEVEL:    2278688  ACCURACY: 49.093
L1D TIMELY PREFETCHES:    1118677 LATE PREFETCHES: 60292 DROPPED PREFETCHES: 0
L1D PREFETCHES SAME FILL-ORIGIN LEVEL: 2278688 DIFFERENT FILL-ORIGIN LEVEL: 0
L1D AVERAGE MISS LATENCY: 1.77358e+06 cycles
L1D RQ	ACCESS:   19342037	FORWARD:          0	MERGED:    4415640	TO_CACHE:   14616786
L1D WQ	ACCESS:   17491234	FORWARD:     309613	MERGED:       1243	TO_CACHE:   17489991
L1D PQ	ACCESS:    2643108	FORWARD:          0	MERGED:          0	TO_CACHE:    2643106

L1D UNIQUE REGIONS ACCESSED: 0
L1D REGIONS CONFLICTS: 0
L1D Cross Page Prefetch Requests: 0
L1D Same Page Prefetch Requests: 3160880
L1D ROI Sum of L1D PQ occupancy: 34464933
L1D PREFETCHES PUSHED FROM L2C: 0
L1I TOTAL     ACCESS:    8915519  HIT:    8915519  MISS:          0  HIT %:        100  MISS %:          0   MPKI: 0
L1I LOAD      ACCESS:    8915519  HIT:    8915519  MISS:          0  HIT %:        100  MISS %:          0   MPKI: 0
L1I PREFETCH  REQUESTED:          0  ISSUED:          0  USEFUL:          0  USELESS:          0
L1I USEFUL LOAD PREFETCHES:          0 PREFETCH ISSUED TO LOWER LEVEL:          0  ACCURACY: -nan
L1I TIMELY PREFETCHES:          0 LATE PREFETCHES: 0 DROPPED PREFETCHES: 0
L1I PREFETCHES SAME FILL-ORIGIN LEVEL: 0 DIFFERENT FILL-ORIGIN LEVEL: 0
L1I AVERAGE MISS LATENCY: -nan cycles
L1I RQ	ACCESS:   14826906	FORWARD:          0	MERGED:    5911385	TO_CACHE:    8915521

BTB TOTAL     ACCESS:    5120838  HIT:    5120833  MISS:          5  HIT %:    99.9999  MISS %: 9.76403e-05   MPKI: 0.0001
BTB BRANCH_DIRECT_JUMP	ACCESS:     748070  HIT:     748069  MISS:          1
BTB BRANCH_INDIRECT	ACCESS:          0  HIT:          0  MISS:          0
BTB BRANCH_CONDITIONAL	ACCESS:    2186378  HIT:    2186376  MISS:          2
BTB BRANCH_DIRECT_CALL	ACCESS:    1093195  HIT:    1093194  MISS:          1
BTB BRANCH_INDIRECT_CALL	ACCESS:          0  HIT:          0  MISS:          0
BTB BRANCH_RETURN	ACCESS:    1093195  HIT:    1093194  MISS:          1
BTB BRANCH_OTHER ACCESS:          0  HIT:          0  MISS:          0

L2C TOTAL     ACCESS:   12935540  HIT:    6693196  MISS:    6242344  HIT %:    51.7427  MISS %:    48.2573   MPKI: 124.847
L2C LOAD      ACCESS:    1137331  HIT:     294731  MISS:     842600  HIT %:    25.9143  MISS %:    74.0857   MPKI: 16.852
L2C DATA LOAD MPKI: 16.852
L2C INSTRUCTION LOAD MPKI: 0
L2C RFO       ACCESS:    2186397  HIT:       1826  MISS:    2184571  HIT %:  0.0835164  MISS %:    99.9165   MPKI: 43.6914
L2C PREFETCH  ACCESS:    3362220  HIT:    1271596  MISS:    2090624  HIT %:    37.8201  MISS %:    62.1799   MPKI: 41.8125
L2C DATA PREFETCH MPKI: 41.8125
L2C INSTRUCTION PREFETCH MPKI: 0
L2C WRITEBACK ACCESS:    4502721  HIT:    4403591  MISS:      99130  HIT %:    97.7984  MISS %:    2.20156   MPKI: 1.9826
L2C LOAD TRANSLATION ACCESS:    1746871  HIT:     721452  MISS:    1025419  HIT %:    41.2997  MISS %:    58.7003   MPKI: 20.5084
L2C PREFETCH  REQUESTED:    2373279  ISSUED:    2373279  USEFUL:      49875  USELESS:    2040696
L2C USEFUL LOAD PREFETCHES:      49875 PREFETCH ISSUED TO LOWER LEVEL:    2092851  ACCURACY: 2.38311
L2C TIMELY PREFETCHES:      49875 LATE PREFETCHES: 2226 DROPPED PREFETCHES: 0
L2C PREFETCHES SAME FILL-ORIGIN LEVEL: 990599 DIFFERENT FILL-ORIGIN LEVEL: 0
L2C AVERAGE MISS LATENCY: 278.561 cycles
L2C RQ	ACCESS:    5070608	FORWARD:          0	MERGED:          0	TO_CACHE:    5070602
L2C WQ	ACCESS:    4502721	FORWARD:          8	MERGED:          0	TO_CACHE:    4502721
L2C PQ	ACCESS:    4651967	FORWARD:          0	MERGED:     627965	TO_CACHE:    4024000

L2C Instructions Evicting Data 0
L2C Translations Evicting Data 855288
L2C Data Evicting Data 4272240
L2C Instructions Evicting Instructions 0
L2C Translations Evicting Instructions 0
L2C Data Evicting Instructions 0
L2C Instructions Evicting Translations 0
L2C Translations Evicting Translations 170131
L2C Data Evicting Translations 845555
L2C Dense regions hint from L2: 0
PSCL5 TOTAL     ACCESS:    1191401  HIT:    1191401  MISS:          0  HIT %:        100  MISS %:          0   MPKI: 0
PSCL5 LOAD TRANSLATION ACCESS:    1191401  HIT:    1191401  MISS:          0  HIT %:        100  MISS %:          0   MPKI: 0
PSCL5 PREFETCH  REQUESTED:          0  ISSUED:          0  USEFUL:          0  USELESS:          0
PSCL5 USEFUL LOAD PREFETCHES:          0 PREFETCH ISSUED TO LOWER LEVEL:          0  ACCURACY: -nan
PSCL5 TIMELY PREFETCHES:          0 LATE PREFETCHES: 0 DROPPED PREFETCHES: 0
PSCL5 PREFETCHES SAME FILL-ORIGIN LEVEL: 0 DIFFERENT FILL-ORIGIN LEVEL: 0

PSCL4 TOTAL     ACCESS:    1191401  HIT:    1191401  MISS:          0  HIT %:        100  MISS %:          0   MPKI: 0
PSCL4 LOAD TRANSLATION ACCESS:    1191401  HIT:    1191401  MISS:          0  HIT %:        100  MISS %:          0   MPKI: 0
PSCL4 PREFETCH  REQUESTED:          0  ISSUED:          0  USEFUL:          0  USELESS:          0
PSCL4 USEFUL LOAD PREFETCHES:          0 PREFETCH ISSUED TO LOWER LEVEL:          0  ACCURACY: -nan
PSCL4 TIMELY PREFETCHES:          0 LATE PREFETCHES: 0 DROPPED PREFETCHES: 0
PSCL4 PREFETCHES SAME FILL-ORIGIN LEVEL: 0 DIFFERENT FILL-ORIGIN LEVEL: 0

PSCL3 TOTAL     ACCESS:    1191401  HIT:    1191401  MISS:          0  HIT %:        100  MISS %:          0   MPKI: 0
PSCL3 LOAD TRANSLATION ACCESS:    1191401  HIT:    1191401  MISS:          0  HIT %:        100  MISS %:          0   MPKI: 0
PSCL3 PREFETCH  REQUESTED:          0  ISSUED:          0  USEFUL:          0  USELESS:          0
PSCL3 USEFUL LOAD PREFETCHES:          0 PREFETCH ISSUED TO LOWER LEVEL:          0  ACCURACY: -nan
PSCL3 TIMELY PREFETCHES:          0 LATE PREFETCHES: 0 DROPPED PREFETCHES: 0
PSCL3 PREFETCHES SAME FILL-ORIGIN LEVEL: 0 DIFFERENT FILL-ORIGIN LEVEL: 0

PSCL2 TOTAL     ACCESS:    1191401  HIT:     635892  MISS:     555509  HIT %:    53.3735  MISS %:    46.6265   MPKI: 11.1102
PSCL2 LOAD TRANSLATION ACCESS:    1191401  HIT:     635892  MISS:     555509  HIT %:    53.3735  MISS %:    46.6265   MPKI: 11.1102
PSCL2 PREFETCH  REQUESTED:          0  ISSUED:          0  USEFUL:          0  USELESS:          0
PSCL2 USEFUL LOAD PREFETCHES:          0 PREFETCH ISSUED TO LOWER LEVEL:          0  ACCURACY: -nan
PSCL2 TIMELY PREFETCHES:          0 LATE PREFETCHES: 0 DROPPED PREFETCHES: 0
PSCL2 PREFETCHES SAME FILL-ORIGIN LEVEL: 0 DIFFERENT FILL-ORIGIN LEVEL: 0

LLC TOTAL     ACCESS:   10394392  HIT:    5552396  MISS:    4841996  HIT %:    53.4172  MISS %:    46.5828   MPKI: 96.8399
LLC LOAD      ACCESS:     840365  HIT:     517593  MISS:     322772  HIT %:    61.5915  MISS %:    38.4085   MPKI: 6.45544
LLC RFO       ACCESS:    2184571  HIT:      10942  MISS:    2173629  HIT %:   0.500876  MISS %:    99.4991   MPKI: 43.4726
LLC PREFETCH  ACCESS:    2092845  HIT:     559885  MISS:    1532960  HIT %:    26.7523  MISS %:    73.2477   MPKI: 30.6592
LLC WRITEBACK ACCESS:    4251192  HIT:    4246931  MISS:       4261  HIT %:    99.8998  MISS %:   0.100231   MPKI: 0.08522
LLC LOAD TRANSLATION ACCESS:    1025419  HIT:     217045  MISS:     808374  HIT %:    21.1665  MISS %:    78.8335   MPKI: 16.1675
LLC PREFETCH  REQUESTED:          0  ISSUED:          0  USEFUL:      31119  USELESS:    1502113
LLC USEFUL LOAD PREFETCHES:      31119 PREFETCH ISSUED TO LOWER LEVEL:    1532961  ACCURACY: 2.02999
LLC TIMELY PREFETCHES:      31119 LATE PREFETCHES: 0 DROPPED PREFETCHES: 0
LLC PREFETCHES SAME FILL-ORIGIN LEVEL: 0 DIFFERENT FILL-ORIGIN LEVEL: 0
LLC AVERAGE MISS LATENCY: 318.782 cycles
LLC RQ	ACCESS:    4050367	FORWARD:          0	MERGED:          0	TO_CACHE:    4050358
LLC WQ	ACCESS:    4251192	FORWARD:         14	MERGED:          0	TO_CACHE:    4251192
LLC PQ	ACCESS:    2092851	FORWARD:          0	MERGED:          0	TO_CACHE:    2092846

LLC Dense regions hint to LLC: 0

RAW hits: 1428785
Loads Generated: 20770821
Loads sent to L1D: 19342037
Stores Generated: 17491231
Stores sent to L1D: 17491234
Major fault: 0 Minor fault: 224166
Allocated PAGES: 224166

stream: 
stream:times selected: 6799055
stream:pref_filled: 1226511
stream:pref_useful: 18916
stream:pref_late: 2485
stream:misses: 191326
stream:misses_by_poll: 0

CS: 
CS:times selected: 3703982
CS:pref_filled: 1316886
CS:pref_useful: 1314437
CS:pref_late: 56777
CS:misses: 127159
CS:misses_by_poll: 6811

CPLX: 
CPLX:times selected: 3080936
CPLX:pref_filled: 125910
CPLX:pref_useful: 27621
CPLX:pref_late: 383
CPLX:misses: 1103533
CPLX:misses_by_poll: 325

NL_L1: 
NL:times selected: 21245
NL:pref_filled: 4600
NL:pref_useful: 96
NL:pref_late: 5
NL:misses: 7032
NL:misses_by_poll: 1

total selections: 13605218
total_filled: 2218395
total_useful: 1118677
total_late: 60853
total_polluted: 7137
total_misses_after_warmup: 1215196
conflicts: 0
Degree Incremented Times: 69981
Degree Decremented Times: 208940

L1 IP Table Write Accesses: 14616786
L1 IP Table Read Accesses: 14616786
L1 RST Write Accesses: 5681409
L1 RST Read Accesses: 11362818
L1 CSPT Write Accesses: 5681409
L1 CSPT Read Accesses: 8289887
L1 RR Filter Tag Write Accesses: 2643108
L1 RR Filter Tag Read Accesses: 409244713
L1 IP Table Tag Write Accesses: 14616786
L1 IP Table Tag Read Accesses: 14616786
L1 RST Tag Write Accesses: 0
L1 RST Tag Read Accesses: 51097267
L1 RR Filter Write Accesses: 0
L1 RR Filter Read Accesses: 15303667
test: 1315332
L2 IP Table Read Accesses: 6058874
L2 IP Table Write Accesses: 4921543
L2 IP Table Tag Read Accesses: 3029437
L2 IP Table Tag Write Accesses: 3029437

DRAM Statistics
 CHANNEL 0
 RQ ROW_BUFFER_HIT:      72009  ROW_BUFFER_MISS:    4764764
 DBUS_CONGESTED:         52
 WQ ROW_BUFFER_HIT:     603124  ROW_BUFFER_MISS:    3122288  FULL:          0

 AVG_CONGESTED_CYCLE: 4
 All warmup complete: 2
Channel 0 Bank busy for read cycles: 0
Channel 0 Bank busy for write cycles: 0
Channel 0
Rank 0
0banks busy for read cycles: 384097
0banks busy for write cycles: 0
1banks busy for read cycles: 27442682
1banks busy for write cycles: 560530
2banks busy for read cycles: 37266052
2banks busy for write cycles: 569629
3banks busy for read cycles: 56172168
3banks busy for write cycles: 589043
4banks busy for read cycles: 39229293
4banks busy for write cycles: 1098594
5banks busy for read cycles: 29272286
5banks busy for write cycles: 1998623
6banks busy for read cycles: 17882421
6banks busy for write cycles: 4772466
7banks busy for read cycles: 8472108
7banks busy for write cycles: 20907380
8banks busy for read cycles: 2558733
8banks busy for write cycles: 77499338

CPU 0 Branch Prediction Accuracy: 94.7877% MPKI: 6.47792 Average ROB Occupancy at Mispredict: 104.033
Branch types
NOT_BRANCH: 43785608 87.5712%
BRANCH_DIRECT_JUMP: 748070 1.49614%
BRANCH_INDIRECT: 0 0%
BRANCH_CONDITIONAL: 3279583 6.55917%
BRANCH_DIRECT_CALL: 1093195 2.18639%
BRANCH_INDIRECT_CALL: 0 0%
BRANCH_RETURN: 1093195 2.18639%
BRANCH_OTHER: 0 0%

@sumon_overall_L1D   1118677     60292   1099700   2218395   5286214   5286214
@Sumon_Early_by_class_L1D     15508   1076722     26403         5
@Sumon_Late_by_class_L1D      2376     56341       377         5

@Sumon_Early_by_cycle_L1D     89192    165623    293858    204013    133454    212714     14188      1307      1056      2042       389       841
@Sumon_Late_by_cycle_L1D     23866     20599     11889      2824       740       374         0         0         0         0         0         0
@Sumon_Early_stream_L1D      2272      3372      2292      1084       600      1276       484       469       879      1787       327       666
@Sumon_Early_CS_L1D     86525    161451    289333    199698    128881    199305     11366       153         4         5         1         0
@Sumon_Early_CPLX_L1D       384       790      2229      3231      3972     12131      2337       684       171       245        60       169
@Sumon_Late_stream_L1D      1267       464       412       175        47        11         0         0         0         0         0         0
@Sumon_Late_CS_L1D     21249     20017     11405      2628       681       361         0         0         0         0         0         0
@Sumon_Late_CPLX_L1D       162       109        72        20        12         2         0         0         0         0         0         0
@sumon_overall_L2C     49875      2226   2040696   2090624   2373279   2373279
@Sumon_Early_by_class_L2C     24709     22242      2864         0
@Sumon_Late_by_class_L2C         0      2134         0         0

@Sumon_Early_by_cycle_L2C      1482      2823      4972      4002      2911      5536       277         5         8       522      3061     24276
@Sumon_Late_by_cycle_L2C       884       738       456       101        29        18         0         0         0         0         0         0
@Sumon_Early_stream_L2C         0         0         0         0         0         0         0         0         5       458      2722     21524
@Sumon_Early_CS_L2C      1482      2823      4972      4002      2911      5536       277         5         3         7        18       206
@Sumon_Early_CPLX_L2C         0         0         0         0         0         0         0         0         0        56       316      2492
@Sumon_Late_stream_L2C         0         0         0         0         0         0         0         0         0         0         0         0
@Sumon_Late_CS_L2C       793       737       456       101        29        18         0         0         0         0         0         0
@Sumon_Late_CPLX_L2C         0         0         0         0         0         0         0         0         0         0         0         0
DRAM PAGES: 1048576
Allocated PAGES: 224166
