
*** ChampSim Multicore Out-of-Order Simulator ***

Warmup Instructions: 10000000
Simulation Instructions: 50000000
Number of CPUs: 1
LLC sets: 2048
LLC ways: 16
Off-chip DRAM Size: 4096 MB Channels: 1 Width: 64-bit Data Rate: 6400 MT/s
CPU 0 runs traces/SPEC2017/607.cactuBSSN_s-2421B.champsimtrace.xz
.xz
CPU 0 Bimodal branch predictor
BTB has LRU replacement policy
ITLB has LRU replacement policy
DTLB has LRU replacement policy
STLB has LRU replacement policy
L1I has LRU replacement policy
IP Table Entries: 256
L1D has LRU replacement policy
IP_Table L2 entries: 256
Initialize DRRIP state for L2C
LLC has LRU replacement policy
Heartbeat CPU 0 instructions: 10000002 cycles: 3586755 heartbeat IPC: 2.78804 cumulative IPC: 2.78804 (Simulation time: 0 hr 30 min 39 sec) 

Warmup complete CPU 0 instructions: 10000002 cycles: 3586755 (Simulation time: 0 hr 30 min 39 sec) 

Heartbeat CPU 0 instructions: 20000001 cycles: 14615810 heartbeat IPC: 0.906696 cumulative IPC: 0.906696 (Simulation time: 0 hr 51 min 26 sec) 
Heartbeat CPU 0 instructions: 30000000 cycles: 25612174 heartbeat IPC: 0.909391 cumulative IPC: 0.908042 (Simulation time: 1 hr 12 min 41 sec) 
Heartbeat CPU 0 instructions: 40000001 cycles: 36581921 heartbeat IPC: 0.911598 cumulative IPC: 0.909224 (Simulation time: 1 hr 33 min 38 sec) 
Heartbeat CPU 0 instructions: 50000000 cycles: 47567517 heartbeat IPC: 0.910283 cumulative IPC: 0.909488 (Simulation time: 1 hr 52 min 27 sec) 
Heartbeat CPU 0 instructions: 60000003 cycles: 58638413 heartbeat IPC: 0.90327 cumulative IPC: 0.908238 (Simulation time: 2 hr 4 min 9 sec) 
Finished CPU 0 instructions: 50000001 cycles: 55051658 cumulative IPC: 0.908238 (Simulation time: 2 hr 4 min 9 sec) 

ChampSim completed all CPUs

Region of Interest Statistics

CPU 0 cumulative IPC: 0.908238 instructions: 50000001 cycles: 55051658
ITLB TOTAL     ACCESS:    6916188  HIT:    6916128  MISS:         60  HIT %:    99.9991  MISS %: 0.00086753   MPKI: 0.0012
ITLB LOAD TRANSLATION ACCESS:    6916188  HIT:    6916128  MISS:         60  HIT %:    99.9991  MISS %: 0.00086753   MPKI: 0.0012
ITLB PREFETCH  REQUESTED:          0  ISSUED:          0  USEFUL:          0  USELESS:          0
ITLB USEFUL LOAD PREFETCHES:          0 PREFETCH ISSUED TO LOWER LEVEL:          0  ACCURACY: -nan
ITLB TIMELY PREFETCHES:          0 LATE PREFETCHES: 0 DROPPED PREFETCHES: 0
ITLB PREFETCHES SAME FILL-ORIGIN LEVEL: 0 DIFFERENT FILL-ORIGIN LEVEL: 0
ITLB AVERAGE MISS LATENCY: 372.167 cycles
ITLB RQ	ACCESS:    8511284	FORWARD:          0	MERGED:    1595084	TO_CACHE:    6916200

DTLB TOTAL     ACCESS:   13503103  HIT:   11284127  MISS:    2218976  HIT %:    83.5669  MISS %:    16.4331   MPKI: 44.3795
DTLB LOAD TRANSLATION ACCESS:   13503103  HIT:   11284127  MISS:    2218976  HIT %:    83.5669  MISS %:    16.4331   MPKI: 44.3795
DTLB PREFETCH  REQUESTED:          0  ISSUED:          0  USEFUL:          0  USELESS:          0
DTLB USEFUL LOAD PREFETCHES:          0 PREFETCH ISSUED TO LOWER LEVEL:          0  ACCURACY: -nan
DTLB TIMELY PREFETCHES:          0 LATE PREFETCHES: 0 DROPPED PREFETCHES: 0
DTLB PREFETCHES SAME FILL-ORIGIN LEVEL: 0 DIFFERENT FILL-ORIGIN LEVEL: 0
DTLB AVERAGE MISS LATENCY: 10.1576 cycles
DTLB RQ	ACCESS:   18950117	FORWARD:          0	MERGED:    5237116	TO_CACHE:   13713001

STLB TOTAL     ACCESS:    2246479  HIT:    2243421  MISS:       3058  HIT %:    99.8639  MISS %:   0.136124   MPKI: 0.06116
STLB LOAD TRANSLATION ACCESS:    2219036  HIT:    2215978  MISS:       3058  HIT %:    99.8622  MISS %:   0.137808   MPKI: 0.06116
STLB TRANSLATION FROM L1D PREFETCHER ACCESS:      27443  HIT:      27443  MISS:          0  HIT %:        100  MISS %:          0   MPKI: 0
STLB PREFETCH  REQUESTED:          0  ISSUED:          0  USEFUL:          0  USELESS:          0
STLB USEFUL LOAD PREFETCHES:          0 PREFETCH ISSUED TO LOWER LEVEL:          0  ACCURACY: -nan
STLB TIMELY PREFETCHES:          0 LATE PREFETCHES: 0 DROPPED PREFETCHES: 0
STLB PREFETCHES SAME FILL-ORIGIN LEVEL: 0 DIFFERENT FILL-ORIGIN LEVEL: 0
STLB AVERAGE MISS LATENCY: 600.685 cycles
STLB RQ	ACCESS:    2247673	FORWARD:          0	MERGED:       1194	TO_CACHE:    2246479

STLB Hit, L1D data hit: 0
STLB Hit, L2C data hit: 0
STLB Hit, LLC data hit: 0
STLB Hit, LLC data miss: 0
STLB STLB hints to L2: 0
L1D TOTAL     ACCESS:   18855934  HIT:   14817339  MISS:    4038595  HIT %:    78.5818  MISS %:    21.4182   MPKI: 80.7719
L1D LOAD      ACCESS:   14556877  HIT:   10863180  MISS:    3693697  HIT %:    74.6258  MISS %:    25.3742   MPKI: 73.8739
L1D RFO       ACCESS:    4270437  HIT:    3951090  MISS:     319347  HIT %:    92.5219  MISS %:    7.47809   MPKI: 6.38694
L1D PREFETCH  ACCESS:      28620  HIT:       3069  MISS:      25551  HIT %:    10.7233  MISS %:    89.2767   MPKI: 0.51102
L1D PREFETCH  REQUESTED:      57274  ISSUED:      57274  USEFUL:       2765  USELESS:      22736
L1D USEFUL LOAD PREFETCHES:       2765 PREFETCH ISSUED TO LOWER LEVEL:      26514  ACCURACY: 10.4285
L1D TIMELY PREFETCHES:       2765 LATE PREFETCHES: 4 DROPPED PREFETCHES: 0
L1D PREFETCHES SAME FILL-ORIGIN LEVEL: 26514 DIFFERENT FILL-ORIGIN LEVEL: 0
L1D AVERAGE MISS LATENCY: 72.6486 cycles
L1D RQ	ACCESS:   18622308	FORWARD:          0	MERGED:    3960634	TO_CACHE:   14653272
L1D WQ	ACCESS:    4319698	FORWARD:       8402	MERGED:      22853	TO_CACHE:    4296845
L1D PQ	ACCESS:      28637	FORWARD:          0	MERGED:          0	TO_CACHE:      28637

L1D UNIQUE REGIONS ACCESSED: 0
L1D REGIONS CONFLICTS: 0
L1D Cross Page Prefetch Requests: 0
L1D Same Page Prefetch Requests: 29955
L1D ROI Sum of L1D PQ occupancy: 405214
L1D PREFETCHES PUSHED FROM L2C: 0
L1I TOTAL     ACCESS:    7955140  HIT:    6865383  MISS:    1089757  HIT %:    86.3012  MISS %:    13.6988   MPKI: 21.7951
L1I LOAD      ACCESS:    7955140  HIT:    6865383  MISS:    1089757  HIT %:    86.3012  MISS %:    13.6988   MPKI: 21.7951
L1I PREFETCH  REQUESTED:          0  ISSUED:          0  USEFUL:          0  USELESS:          0
L1I USEFUL LOAD PREFETCHES:          0 PREFETCH ISSUED TO LOWER LEVEL:          0  ACCURACY: -nan
L1I TIMELY PREFETCHES:          0 LATE PREFETCHES: 0 DROPPED PREFETCHES: 0
L1I PREFETCHES SAME FILL-ORIGIN LEVEL: 0 DIFFERENT FILL-ORIGIN LEVEL: 0
L1I AVERAGE MISS LATENCY: 14.2793 cycles
L1I RQ	ACCESS:   12018791	FORWARD:          0	MERGED:    3507507	TO_CACHE:    8511284

BTB TOTAL     ACCESS:     280550  HIT:     262606  MISS:      17944  HIT %:     93.604  MISS %:    6.39601   MPKI: 0.35888
BTB BRANCH_DIRECT_JUMP	ACCESS:      48856  HIT:      48796  MISS:         60
BTB BRANCH_INDIRECT	ACCESS:      10100  HIT:      10021  MISS:         79
BTB BRANCH_CONDITIONAL	ACCESS:     122188  HIT:     121715  MISS:        473
BTB BRANCH_DIRECT_CALL	ACCESS:      49700  HIT:      49036  MISS:        664
BTB BRANCH_INDIRECT_CALL	ACCESS:          3  HIT:          0  MISS:          3
BTB BRANCH_RETURN	ACCESS:      49703  HIT:      33038  MISS:      16665
BTB BRANCH_OTHER ACCESS:          0  HIT:          0  MISS:          0

L2C TOTAL     ACCESS:    7963641  HIT:    7573408  MISS:     390233  HIT %:    95.0998  MISS %:    4.90018   MPKI: 7.80466
L2C LOAD      ACCESS:    4767482  HIT:    4666534  MISS:     100948  HIT %:    97.8826  MISS %:    2.11743   MPKI: 2.01896
L2C DATA LOAD MPKI: 1.98544
L2C INSTRUCTION LOAD MPKI: 0.03352
L2C RFO       ACCESS:     319081  HIT:     289029  MISS:      30052  HIT %:    90.5817  MISS %:     9.4183   MPKI: 0.60104
L2C PREFETCH  ACCESS:    2527357  HIT:    2272500  MISS:     254857  HIT %:    89.9161  MISS %:    10.0839   MPKI: 5.09714
L2C DATA PREFETCH MPKI: 5.09714
L2C INSTRUCTION PREFETCH MPKI: 0
L2C WRITEBACK ACCESS:     345249  HIT:     345004  MISS:        245  HIT %:     99.929  MISS %:  0.0709633   MPKI: 0.0049
L2C LOAD TRANSLATION ACCESS:       4472  HIT:        341  MISS:       4131  HIT %:    7.62522  MISS %:    92.3748   MPKI: 0.08262
L2C PREFETCH  REQUESTED:    2537787  ISSUED:    2508158  USEFUL:     197917  USELESS:      56881
L2C USEFUL LOAD PREFETCHES:     197917 PREFETCH ISSUED TO LOWER LEVEL:     255213  ACCURACY: 77.5497
L2C TIMELY PREFETCHES:     197917 LATE PREFETCHES: 356 DROPPED PREFETCHES: 0
L2C PREFETCHES SAME FILL-ORIGIN LEVEL: 239604 DIFFERENT FILL-ORIGIN LEVEL: 0
L2C AVERAGE MISS LATENCY: 166.343 cycles
L2C RQ	ACCESS:    5107269	FORWARD:          0	MERGED:          0	TO_CACHE:    5091035
L2C WQ	ACCESS:     345249	FORWARD:      16264	MERGED:          0	TO_CACHE:     345249
L2C PQ	ACCESS:    2533713	FORWARD:          0	MERGED:       4120	TO_CACHE:    2529563

L2C Instructions Evicting Data 1563
L2C Translations Evicting Data 4053
L2C Data Evicting Data 378432
L2C Instructions Evicting Instructions 94
L2C Translations Evicting Instructions 25
L2C Data Evicting Instructions 1707
L2C Instructions Evicting Translations 19
L2C Translations Evicting Translations 53
L2C Data Evicting Translations 4042
L2C Dense regions hint from L2: 0
PSCL5 TOTAL     ACCESS:       3058  HIT:       3058  MISS:          0  HIT %:        100  MISS %:          0   MPKI: 0
PSCL5 LOAD TRANSLATION ACCESS:       3058  HIT:       3058  MISS:          0  HIT %:        100  MISS %:          0   MPKI: 0
PSCL5 PREFETCH  REQUESTED:          0  ISSUED:          0  USEFUL:          0  USELESS:          0
PSCL5 USEFUL LOAD PREFETCHES:          0 PREFETCH ISSUED TO LOWER LEVEL:          0  ACCURACY: -nan
PSCL5 TIMELY PREFETCHES:          0 LATE PREFETCHES: 0 DROPPED PREFETCHES: 0
PSCL5 PREFETCHES SAME FILL-ORIGIN LEVEL: 0 DIFFERENT FILL-ORIGIN LEVEL: 0

PSCL4 TOTAL     ACCESS:       3058  HIT:       3058  MISS:          0  HIT %:        100  MISS %:          0   MPKI: 0
PSCL4 LOAD TRANSLATION ACCESS:       3058  HIT:       3058  MISS:          0  HIT %:        100  MISS %:          0   MPKI: 0
PSCL4 PREFETCH  REQUESTED:          0  ISSUED:          0  USEFUL:          0  USELESS:          0
PSCL4 USEFUL LOAD PREFETCHES:          0 PREFETCH ISSUED TO LOWER LEVEL:          0  ACCURACY: -nan
PSCL4 TIMELY PREFETCHES:          0 LATE PREFETCHES: 0 DROPPED PREFETCHES: 0
PSCL4 PREFETCHES SAME FILL-ORIGIN LEVEL: 0 DIFFERENT FILL-ORIGIN LEVEL: 0

PSCL3 TOTAL     ACCESS:       3058  HIT:       3053  MISS:          5  HIT %:    99.8365  MISS %:   0.163506   MPKI: 0.0001
PSCL3 LOAD TRANSLATION ACCESS:       3058  HIT:       3053  MISS:          5  HIT %:    99.8365  MISS %:   0.163506   MPKI: 0.0001
PSCL3 PREFETCH  REQUESTED:          0  ISSUED:          0  USEFUL:          0  USELESS:          0
PSCL3 USEFUL LOAD PREFETCHES:          0 PREFETCH ISSUED TO LOWER LEVEL:          0  ACCURACY: -nan
PSCL3 TIMELY PREFETCHES:          0 LATE PREFETCHES: 0 DROPPED PREFETCHES: 0
PSCL3 PREFETCHES SAME FILL-ORIGIN LEVEL: 0 DIFFERENT FILL-ORIGIN LEVEL: 0

PSCL2 TOTAL     ACCESS:       3058  HIT:       1587  MISS:       1471  HIT %:    51.8967  MISS %:    48.1033   MPKI: 0.02942
PSCL2 LOAD TRANSLATION ACCESS:       3058  HIT:       1587  MISS:       1471  HIT %:    51.8967  MISS %:    48.1033   MPKI: 0.02942
PSCL2 PREFETCH  REQUESTED:          0  ISSUED:          0  USEFUL:          0  USELESS:          0
PSCL2 USEFUL LOAD PREFETCHES:          0 PREFETCH ISSUED TO LOWER LEVEL:          0  ACCURACY: -nan
PSCL2 TIMELY PREFETCHES:          0 LATE PREFETCHES: 0 DROPPED PREFETCHES: 0
PSCL2 PREFETCHES SAME FILL-ORIGIN LEVEL: 0 DIFFERENT FILL-ORIGIN LEVEL: 0

LLC TOTAL     ACCESS:     426914  HIT:     250138  MISS:     176776  HIT %:    58.5921  MISS %:    41.4079   MPKI: 3.53552
LLC LOAD      ACCESS:     100591  HIT:      67640  MISS:      32951  HIT %:    67.2426  MISS %:    32.7574   MPKI: 0.65902
LLC RFO       ACCESS:      29764  HIT:       5100  MISS:      24664  HIT %:    17.1348  MISS %:    82.8652   MPKI: 0.49328
LLC PREFETCH  ACCESS:     255213  HIT:     136764  MISS:     118449  HIT %:    53.5882  MISS %:    46.4118   MPKI: 2.36898
LLC WRITEBACK ACCESS:      37215  HIT:      37136  MISS:         79  HIT %:    99.7877  MISS %:    0.21228   MPKI: 0.00158
LLC LOAD TRANSLATION ACCESS:       4131  HIT:       3498  MISS:        633  HIT %:    84.6768  MISS %:    15.3232   MPKI: 0.01266
LLC PREFETCH  REQUESTED:          0  ISSUED:          0  USEFUL:      23937  USELESS:      85771
LLC USEFUL LOAD PREFETCHES:      23937 PREFETCH ISSUED TO LOWER LEVEL:     118449  ACCURACY: 20.2087
LLC TIMELY PREFETCHES:      23937 LATE PREFETCHES: 0 DROPPED PREFETCHES: 0
LLC PREFETCHES SAME FILL-ORIGIN LEVEL: 0 DIFFERENT FILL-ORIGIN LEVEL: 0
LLC AVERAGE MISS LATENCY: 298.967 cycles
LLC RQ	ACCESS:     134775	FORWARD:          0	MERGED:          0	TO_CACHE:     134486
LLC WQ	ACCESS:      37215	FORWARD:        289	MERGED:          0	TO_CACHE:      37215
LLC PQ	ACCESS:     255213	FORWARD:          0	MERGED:          0	TO_CACHE:     255213

LLC Dense regions hint to LLC: 0

RAW hits: 104809
Loads Generated: 18727117
Loads sent to L1D: 18622308
Stores Generated: 4319811
Stores sent to L1D: 4319809
Major fault: 0 Minor fault: 3837
Allocated PAGES: 3837

stream: 
stream:times selected: 35987
stream:pref_filled: 21707
stream:pref_useful: 2531
stream:pref_late: 3
stream:misses: 511
stream:misses_by_poll: 0

CS: 
CS:times selected: 17894
CS:pref_filled: 336
CS:pref_useful: 35
CS:pref_late: 3
CS:misses: 2507
CS:misses_by_poll: 0

CPLX: 
CPLX:times selected: 34099
CPLX:pref_filled: 543
CPLX:pref_useful: 130
CPLX:pref_late: 0
CPLX:misses: 141943
CPLX:misses_by_poll: 0

NL_L1: 
NL:times selected: 5
NL:pref_filled: 4
NL:pref_useful: 2
NL:pref_late: 0
NL:misses: 25
NL:misses_by_poll: 0

total selections: 87985
total_filled: 25551
total_useful: 2765
total_late: 6
total_polluted: 0
total_misses_after_warmup: 3790100
conflicts: 7001538
Degree Incremented Times: 0
Degree Decremented Times: 935111

L1 IP Table Write Accesses: 7402224
L1 IP Table Read Accesses: 400686
L1 RST Write Accesses: 33796
L1 RST Read Accesses: 67592
L1 CSPT Write Accesses: 33796
L1 CSPT Read Accesses: 67388
L1 RR Filter Tag Write Accesses: 28637
L1 RR Filter Tag Read Accesses: 2437078
L1 IP Table Tag Write Accesses: 14653280
L1 IP Table Tag Read Accesses: 14653280
L1 RST Tag Write Accesses: 0
L1 RST Tag Read Accesses: 287337
L1 RR Filter Write Accesses: 0
L1 RR Filter Read Accesses: 81219
test: 2344
L2 IP Table Read Accesses: 4822137
L2 IP Table Write Accesses: 5990016
L2 IP Table Tag Read Accesses: 3699138
L2 IP Table Tag Write Accesses: 3699138

DRAM Statistics
 CHANNEL 0
 RQ ROW_BUFFER_HIT:      98975  ROW_BUFFER_MISS:      77722
 DBUS_CONGESTED:        185
 WQ ROW_BUFFER_HIT:      13280  ROW_BUFFER_MISS:      21241  FULL:          0

 AVG_CONGESTED_CYCLE: 4
 All warmup complete: 2
Channel 0 Bank busy for read cycles: 0
Channel 0 Bank busy for write cycles: 0
Channel 0
Rank 0
0banks busy for read cycles: 43924370
0banks busy for write cycles: 10972
1banks busy for read cycles: 4730833
1banks busy for write cycles: 1424461
2banks busy for read cycles: 1557016
2banks busy for write cycles: 422130
3banks busy for read cycles: 1030807
3banks busy for write cycles: 239316
4banks busy for read cycles: 576948
4banks busy for write cycles: 214889
5banks busy for read cycles: 340398
5banks busy for write cycles: 152945
6banks busy for read cycles: 179851
6banks busy for write cycles: 97514
7banks busy for read cycles: 77788
7banks busy for write cycles: 53692
8banks busy for read cycles: 4794
8banks busy for write cycles: 12935

CPU 0 Branch Prediction Accuracy: 99.2795% MPKI: 0.0593 Average ROB Occupancy at Mispredict: 16.4405
Branch types
NOT_BRANCH: 49588170 99.1763%
BRANCH_DIRECT_JUMP: 48856 0.097712%
BRANCH_INDIRECT: 10100 0.0202%
BRANCH_CONDITIONAL: 253148 0.506296%
BRANCH_DIRECT_CALL: 49700 0.0994%
BRANCH_INDIRECT_CALL: 3 6e-06%
BRANCH_RETURN: 49703 0.099406%
BRANCH_OTHER: 0 0%

@sumon_overall_L1D      2765         4     22736     25551     57274     57274
@Sumon_Early_by_class_L1D      2380        15        42         0
@Sumon_Late_by_class_L1D         1         3         0         0

@Sumon_Early_by_cycle_L1D        22        12        18         8         2        17         7        41       161      2434        23        20
@Sumon_Late_by_cycle_L1D         2         2         0         0         0         0         0         0         0         0         0         0
@Sumon_Early_stream_L1D        17        10        17         5         1        12         6        32       135      2118        16        11
@Sumon_Early_CS_L1D         0         1         1         1         1         1         0         0         0         9         0         1
@Sumon_Early_CPLX_L1D         4         0         0         2         0         3         0         2         1        17         5         8
@Sumon_Late_stream_L1D         1         0         0         0         0         0         0         0         0         0         0         0
@Sumon_Late_CS_L1D         1         2         0         0         0         0         0         0         0         0         0         0
@Sumon_Late_CPLX_L1D         0         0         0         0         0         0         0         0         0         0         0         0
@sumon_overall_L2C    197917       356     56881    254857   2508158   2537787
@Sumon_Early_by_class_L2C      9825        29        15         0
@Sumon_Late_by_class_L2C         0         0         0         0

@Sumon_Early_by_cycle_L2C       362        64         7         2         7        96       786      3320     20381    168732      3959       201
@Sumon_Late_by_cycle_L2C       354         2         0         0         0         0         0         0         0         0         0         0
@Sumon_Early_stream_L2C         0         0         0         0         0         0         0        15       462      9335        12         1
@Sumon_Early_CS_L2C         0         0         0         0         0         0         0         0         0        29         0         0
@Sumon_Early_CPLX_L2C         0         0         0         0         0         0         0         0         1         7         3         4
@Sumon_Late_stream_L2C         0         0         0         0         0         0         0         0         0         0         0         0
@Sumon_Late_CS_L2C         0         0         0         0         0         0         0         0         0         0         0         0
@Sumon_Late_CPLX_L2C         0         0         0         0         0         0         0         0         0         0         0         0
DRAM PAGES: 1048576
Allocated PAGES: 3837
