
*** ChampSim Multicore Out-of-Order Simulator ***

Warmup Instructions: 10000000
Simulation Instructions: 50000000
Number of CPUs: 1
LLC sets: 2048
LLC ways: 16
Off-chip DRAM Size: 4096 MB Channels: 1 Width: 64-bit Data Rate: 6400 MT/s
CPU 0 runs traces/SPEC2017/620.omnetpp_s-874B.champsimtrace.xz
.xz
CPU 0 Bimodal branch predictor
BTB has LRU replacement policy
ITLB has LRU replacement policy
DTLB has LRU replacement policy
STLB has LRU replacement policy
L1I has LRU replacement policy
IP Table Entries: 256
L1D has LRU replacement policy
IP_Table L2 entries: 256
Initialize DRRIP state for L2C
LLC has LRU replacement policy
Heartbeat CPU 0 instructions: 10000001 cycles: 3907414 heartbeat IPC: 2.55924 cumulative IPC: 2.55924 (Simulation time: 0 hr 28 min 26 sec) 

Warmup complete CPU 0 instructions: 10000001 cycles: 3907414 (Simulation time: 0 hr 28 min 26 sec) 

Heartbeat CPU 0 instructions: 20000000 cycles: 50033670 heartbeat IPC: 0.216796 cumulative IPC: 0.216796 (Simulation time: 0 hr 55 min 41 sec) 
Heartbeat CPU 0 instructions: 30000002 cycles: 96121316 heartbeat IPC: 0.216978 cumulative IPC: 0.216887 (Simulation time: 1 hr 23 min 1 sec) 
Heartbeat CPU 0 instructions: 40000000 cycles: 142746601 heartbeat IPC: 0.214476 cumulative IPC: 0.216077 (Simulation time: 1 hr 49 min 26 sec) 
Heartbeat CPU 0 instructions: 50000001 cycles: 189406326 heartbeat IPC: 0.214318 cumulative IPC: 0.215635 (Simulation time: 2 hr 6 min 8 sec) 
Heartbeat CPU 0 instructions: 60000001 cycles: 235871274 heartbeat IPC: 0.215216 cumulative IPC: 0.215551 (Simulation time: 2 hr 15 min 50 sec) 
Finished CPU 0 instructions: 50000000 cycles: 231963860 cumulative IPC: 0.215551 (Simulation time: 2 hr 15 min 50 sec) 

ChampSim completed all CPUs

Region of Interest Statistics

CPU 0 cumulative IPC: 0.215551 instructions: 50000000 cycles: 231963860
ITLB TOTAL     ACCESS:    8265925  HIT:    8186298  MISS:      79627  HIT %:    99.0367  MISS %:   0.963316   MPKI: 1.59254
ITLB LOAD TRANSLATION ACCESS:    8265925  HIT:    8186298  MISS:      79627  HIT %:    99.0367  MISS %:   0.963316   MPKI: 1.59254
ITLB PREFETCH  REQUESTED:          0  ISSUED:          0  USEFUL:          0  USELESS:          0
ITLB USEFUL LOAD PREFETCHES:          0 PREFETCH ISSUED TO LOWER LEVEL:          0  ACCURACY: -nan
ITLB TIMELY PREFETCHES:          0 LATE PREFETCHES: 0 DROPPED PREFETCHES: 0
ITLB PREFETCHES SAME FILL-ORIGIN LEVEL: 0 DIFFERENT FILL-ORIGIN LEVEL: 0
ITLB AVERAGE MISS LATENCY: 10.2182 cycles
ITLB RQ	ACCESS:    9321132	FORWARD:          0	MERGED:    1030843	TO_CACHE:    8290289

DTLB TOTAL     ACCESS:   19550504  HIT:   18591082  MISS:     959422  HIT %:    95.0926  MISS %:     4.9074   MPKI: 19.1884
DTLB LOAD TRANSLATION ACCESS:   19550504  HIT:   18591082  MISS:     959422  HIT %:    95.0926  MISS %:     4.9074   MPKI: 19.1884
DTLB PREFETCH  REQUESTED:          0  ISSUED:          0  USEFUL:          0  USELESS:          0
DTLB USEFUL LOAD PREFETCHES:          0 PREFETCH ISSUED TO LOWER LEVEL:          0  ACCURACY: -nan
DTLB TIMELY PREFETCHES:          0 LATE PREFETCHES: 0 DROPPED PREFETCHES: 0
DTLB PREFETCHES SAME FILL-ORIGIN LEVEL: 0 DIFFERENT FILL-ORIGIN LEVEL: 0
DTLB AVERAGE MISS LATENCY: 34.7524 cycles
DTLB RQ	ACCESS:   22024257	FORWARD:          0	MERGED:    2458254	TO_CACHE:   19566003

STLB TOTAL     ACCESS:    2862302  HIT:    2646552  MISS:     215750  HIT %:    92.4624  MISS %:    7.53764   MPKI: 4.315
STLB LOAD TRANSLATION ACCESS:    1039049  HIT:     823299  MISS:     215750  HIT %:    79.2358  MISS %:    20.7642   MPKI: 4.315
STLB TRANSLATION FROM L1D PREFETCHER ACCESS:    1823253  HIT:    1823253  MISS:          0  HIT %:        100  MISS %:          0   MPKI: 0
STLB PREFETCH  REQUESTED:          0  ISSUED:          0  USEFUL:          0  USELESS:          0
STLB USEFUL LOAD PREFETCHES:          0 PREFETCH ISSUED TO LOWER LEVEL:          0  ACCURACY: -nan
STLB TIMELY PREFETCHES:          0 LATE PREFETCHES: 0 DROPPED PREFETCHES: 0
STLB PREFETCHES SAME FILL-ORIGIN LEVEL: 0 DIFFERENT FILL-ORIGIN LEVEL: 0
STLB AVERAGE MISS LATENCY: 114.677 cycles
STLB RQ	ACCESS:    3289833	FORWARD:          0	MERGED:     427530	TO_CACHE:    2862303

STLB Hit, L1D data hit: 0
STLB Hit, L2C data hit: 0
STLB Hit, LLC data hit: 0
STLB Hit, LLC data miss: 0
STLB STLB hints to L2: 0
L1D TOTAL     ACCESS:   23940213  HIT:   22281392  MISS:    1658821  HIT %:     93.071  MISS %:    6.92902   MPKI: 33.1764
L1D LOAD      ACCESS:   12730160  HIT:   11971837  MISS:     758323  HIT %:    94.0431  MISS %:     5.9569   MPKI: 15.1665
L1D RFO       ACCESS:    9037887  HIT:    8931561  MISS:     106326  HIT %:    98.8236  MISS %:    1.17645   MPKI: 2.12652
L1D PREFETCH  ACCESS:    2172166  HIT:    1377994  MISS:     794172  HIT %:    63.4387  MISS %:    36.5613   MPKI: 15.8834
L1D PREFETCH  REQUESTED:    4501997  ISSUED:    4501992  USEFUL:     111642  USELESS:     682456
L1D USEFUL LOAD PREFETCHES:     111642 PREFETCH ISSUED TO LOWER LEVEL:     809370  ACCURACY: 13.7937
L1D TIMELY PREFETCHES:     111642 LATE PREFETCHES: 13314 DROPPED PREFETCHES: 0
L1D PREFETCHES SAME FILL-ORIGIN LEVEL: 809370 DIFFERENT FILL-ORIGIN LEVEL: 0
L1D AVERAGE MISS LATENCY: 1.11353e+06 cycles
L1D RQ	ACCESS:   16246008	FORWARD:          0	MERGED:    2802325	TO_CACHE:   12817326
L1D WQ	ACCESS:    9281775	FORWARD:     626783	MERGED:      74844	TO_CACHE:    9206931
L1D PQ	ACCESS:    2251209	FORWARD:          0	MERGED:          0	TO_CACHE:    2250783

L1D UNIQUE REGIONS ACCESSED: 0
L1D REGIONS CONFLICTS: 0
L1D Cross Page Prefetch Requests: 0
L1D Same Page Prefetch Requests: 2675097
L1D ROI Sum of L1D PQ occupancy: 29228912
L1D PREFETCHES PUSHED FROM L2C: 0
L1I TOTAL     ACCESS:    9314655  HIT:    9296081  MISS:      18574  HIT %:    99.8006  MISS %:   0.199406   MPKI: 0.37148
L1I LOAD      ACCESS:    9314655  HIT:    9296081  MISS:      18574  HIT %:    99.8006  MISS %:   0.199406   MPKI: 0.37148
L1I PREFETCH  REQUESTED:          0  ISSUED:          0  USEFUL:          0  USELESS:          0
L1I USEFUL LOAD PREFETCHES:          0 PREFETCH ISSUED TO LOWER LEVEL:          0  ACCURACY: -nan
L1I TIMELY PREFETCHES:          0 LATE PREFETCHES: 0 DROPPED PREFETCHES: 0
L1I PREFETCHES SAME FILL-ORIGIN LEVEL: 0 DIFFERENT FILL-ORIGIN LEVEL: 0
L1I AVERAGE MISS LATENCY: 28.1319 cycles
L1I RQ	ACCESS:   14346903	FORWARD:          0	MERGED:    5025771	TO_CACHE:    9321132

BTB TOTAL     ACCESS:    7896296  HIT:    7421687  MISS:     474609  HIT %:    93.9895  MISS %:    6.01053   MPKI: 9.49218
BTB BRANCH_DIRECT_JUMP	ACCESS:     569513  HIT:     569409  MISS:        104
BTB BRANCH_INDIRECT	ACCESS:     168336  HIT:     146852  MISS:      21484
BTB BRANCH_CONDITIONAL	ACCESS:    4189086  HIT:    4188659  MISS:        427
BTB BRANCH_DIRECT_CALL	ACCESS:     886019  HIT:     885794  MISS:        225
BTB BRANCH_INDIRECT_CALL	ACCESS:     598662  HIT:     596661  MISS:       2001
BTB BRANCH_RETURN	ACCESS:    1484680  HIT:    1034312  MISS:     450368
BTB BRANCH_OTHER ACCESS:          0  HIT:          0  MISS:          0

L2C TOTAL     ACCESS:    2541302  HIT:    1191203  MISS:    1350099  HIT %:    46.8737  MISS %:    53.1263   MPKI: 27.002
L2C LOAD      ACCESS:     763559  HIT:     270179  MISS:     493380  HIT %:    35.3842  MISS %:    64.6158   MPKI: 9.8676
L2C DATA LOAD MPKI: 9.8203
L2C INSTRUCTION LOAD MPKI: 0.0473
L2C RFO       ACCESS:     104438  HIT:      25055  MISS:      79383  HIT %:    23.9903  MISS %:    76.0097   MPKI: 1.58766
L2C PREFETCH  ACCESS:     889832  HIT:     240517  MISS:     649315  HIT %:    27.0295  MISS %:    72.9705   MPKI: 12.9863
L2C DATA PREFETCH MPKI: 12.9863
L2C INSTRUCTION PREFETCH MPKI: 0
L2C WRITEBACK ACCESS:     477851  HIT:     470270  MISS:       7581  HIT %:    98.4135  MISS %:    1.58648   MPKI: 0.15162
L2C LOAD TRANSLATION ACCESS:     305622  HIT:     185182  MISS:     120440  HIT %:    60.5918  MISS %:    39.4082   MPKI: 2.4088
L2C PREFETCH  REQUESTED:      85637  ISSUED:      85637  USEFUL:      40125  USELESS:     609121
L2C USEFUL LOAD PREFETCHES:      40125 PREFETCH ISSUED TO LOWER LEVEL:     650042  ACCURACY: 6.17268
L2C TIMELY PREFETCHES:      40125 LATE PREFETCHES: 727 DROPPED PREFETCHES: 0
L2C PREFETCHES SAME FILL-ORIGIN LEVEL: 50453 DIFFERENT FILL-ORIGIN LEVEL: 0
L2C AVERAGE MISS LATENCY: 146.035 cycles
L2C RQ	ACCESS:    1173646	FORWARD:          0	MERGED:          0	TO_CACHE:    1173619
L2C WQ	ACCESS:     477851	FORWARD:         41	MERGED:          0	TO_CACHE:     477851
L2C PQ	ACCESS:     895007	FORWARD:          0	MERGED:       1691	TO_CACHE:     893302

L2C Instructions Evicting Data 2112
L2C Translations Evicting Data 109213
L2C Data Evicting Data 1108871
L2C Instructions Evicting Instructions 44
L2C Translations Evicting Instructions 180
L2C Data Evicting Instructions 2133
L2C Instructions Evicting Translations 209
L2C Translations Evicting Translations 11047
L2C Data Evicting Translations 108709
L2C Dense regions hint from L2: 0
PSCL5 TOTAL     ACCESS:     215750  HIT:     215750  MISS:          0  HIT %:        100  MISS %:          0   MPKI: 0
PSCL5 LOAD TRANSLATION ACCESS:     215750  HIT:     215750  MISS:          0  HIT %:        100  MISS %:          0   MPKI: 0
PSCL5 PREFETCH  REQUESTED:          0  ISSUED:          0  USEFUL:          0  USELESS:          0
PSCL5 USEFUL LOAD PREFETCHES:          0 PREFETCH ISSUED TO LOWER LEVEL:          0  ACCURACY: -nan
PSCL5 TIMELY PREFETCHES:          0 LATE PREFETCHES: 0 DROPPED PREFETCHES: 0
PSCL5 PREFETCHES SAME FILL-ORIGIN LEVEL: 0 DIFFERENT FILL-ORIGIN LEVEL: 0

PSCL4 TOTAL     ACCESS:     215750  HIT:     215750  MISS:          0  HIT %:        100  MISS %:          0   MPKI: 0
PSCL4 LOAD TRANSLATION ACCESS:     215750  HIT:     215750  MISS:          0  HIT %:        100  MISS %:          0   MPKI: 0
PSCL4 PREFETCH  REQUESTED:          0  ISSUED:          0  USEFUL:          0  USELESS:          0
PSCL4 USEFUL LOAD PREFETCHES:          0 PREFETCH ISSUED TO LOWER LEVEL:          0  ACCURACY: -nan
PSCL4 TIMELY PREFETCHES:          0 LATE PREFETCHES: 0 DROPPED PREFETCHES: 0
PSCL4 PREFETCHES SAME FILL-ORIGIN LEVEL: 0 DIFFERENT FILL-ORIGIN LEVEL: 0

PSCL3 TOTAL     ACCESS:     215750  HIT:     215750  MISS:          0  HIT %:        100  MISS %:          0   MPKI: 0
PSCL3 LOAD TRANSLATION ACCESS:     215750  HIT:     215750  MISS:          0  HIT %:        100  MISS %:          0   MPKI: 0
PSCL3 PREFETCH  REQUESTED:          0  ISSUED:          0  USEFUL:          0  USELESS:          0
PSCL3 USEFUL LOAD PREFETCHES:          0 PREFETCH ISSUED TO LOWER LEVEL:          0  ACCURACY: -nan
PSCL3 TIMELY PREFETCHES:          0 LATE PREFETCHES: 0 DROPPED PREFETCHES: 0
PSCL3 PREFETCHES SAME FILL-ORIGIN LEVEL: 0 DIFFERENT FILL-ORIGIN LEVEL: 0

PSCL2 TOTAL     ACCESS:     215750  HIT:     125878  MISS:      89872  HIT %:    58.3444  MISS %:    41.6556   MPKI: 1.79744
PSCL2 LOAD TRANSLATION ACCESS:     215750  HIT:     125878  MISS:      89872  HIT %:    58.3444  MISS %:    41.6556   MPKI: 1.79744
PSCL2 PREFETCH  REQUESTED:          0  ISSUED:          0  USEFUL:          0  USELESS:          0
PSCL2 USEFUL LOAD PREFETCHES:          0 PREFETCH ISSUED TO LOWER LEVEL:          0  ACCURACY: -nan
PSCL2 TIMELY PREFETCHES:          0 LATE PREFETCHES: 0 DROPPED PREFETCHES: 0
PSCL2 PREFETCHES SAME FILL-ORIGIN LEVEL: 0 DIFFERENT FILL-ORIGIN LEVEL: 0

LLC TOTAL     ACCESS:    1702938  HIT:     743813  MISS:     959125  HIT %:    43.6782  MISS %:    56.3218   MPKI: 19.1825
LLC LOAD      ACCESS:     492727  HIT:     129923  MISS:     362804  HIT %:    26.3682  MISS %:    73.6318   MPKI: 7.25608
LLC RFO       ACCESS:      79309  HIT:      30481  MISS:      48828  HIT %:    38.4332  MISS %:    61.5668   MPKI: 0.97656
LLC PREFETCH  ACCESS:     650041  HIT:     169377  MISS:     480664  HIT %:    26.0564  MISS %:    73.9436   MPKI: 9.61328
LLC WRITEBACK ACCESS:     360421  HIT:     354686  MISS:       5735  HIT %:    98.4088  MISS %:    1.59119   MPKI: 0.1147
LLC LOAD TRANSLATION ACCESS:     120440  HIT:      59346  MISS:      61094  HIT %:    49.2743  MISS %:    50.7257   MPKI: 1.22188
LLC PREFETCH  REQUESTED:          0  ISSUED:          0  USEFUL:      27403  USELESS:     453207
LLC USEFUL LOAD PREFETCHES:      27403 PREFETCH ISSUED TO LOWER LEVEL:     480664  ACCURACY: 5.70107
LLC TIMELY PREFETCHES:      27403 LATE PREFETCHES: 0 DROPPED PREFETCHES: 0
LLC PREFETCHES SAME FILL-ORIGIN LEVEL: 0 DIFFERENT FILL-ORIGIN LEVEL: 0
LLC AVERAGE MISS LATENCY: 163.191 cycles
LLC RQ	ACCESS:     692476	FORWARD:          0	MERGED:          0	TO_CACHE:     692476
LLC WQ	ACCESS:     360421	FORWARD:          1	MERGED:          0	TO_CACHE:     360421
LLC PQ	ACCESS:     650042	FORWARD:          0	MERGED:          0	TO_CACHE:     650041

LLC Dense regions hint to LLC: 0

RAW hits: 643052
Loads Generated: 16889060
Loads sent to L1D: 16246008
Stores Generated: 9281774
Stores sent to L1D: 9281775
Major fault: 0 Minor fault: 45883
Allocated PAGES: 45883

stream: 
stream:times selected: 4003768
stream:pref_filled: 620556
stream:pref_useful: 113537
stream:pref_late: 15490
stream:misses: 150447
stream:misses_by_poll: 0

CS: 
CS:times selected: 32422
CS:pref_filled: 12263
CS:pref_useful: 1912
CS:pref_late: 0
CS:misses: 755
CS:misses_by_poll: 2

CPLX: 
CPLX:times selected: 3974473
CPLX:pref_filled: 302551
CPLX:pref_useful: 14198
CPLX:pref_late: 603
CPLX:misses: 485793
CPLX:misses_by_poll: 627

NL_L1: 
NL:times selected: 17435
NL:pref_filled: 6121
NL:pref_useful: 1190
NL:pref_late: 198
NL:misses: 5330
NL:misses_by_poll: 1

total selections: 8028098
total_filled: 794172
total_useful: 111642
total_late: 16710
total_polluted: 630
total_misses_after_warmup: 845487
conflicts: 1769645
Degree Incremented Times: 0
Degree Decremented Times: 318422

L1 IP Table Write Accesses: 9538734
L1 IP Table Read Accesses: 7769089
L1 RST Write Accesses: 3429456
L1 RST Read Accesses: 6858912
L1 CSPT Write Accesses: 3429456
L1 CSPT Read Accesses: 6833072
L1 RR Filter Tag Write Accesses: 2251214
L1 RR Filter Tag Read Accesses: 127782033
L1 IP Table Tag Write Accesses: 12817324
L1 IP Table Tag Read Accesses: 12817324
L1 RST Tag Write Accesses: 0
L1 RST Tag Read Accesses: 29528929
L1 RR Filter Write Accesses: 0
L1 RR Filter Read Accesses: 4408984
test: 1931263
L2 IP Table Read Accesses: 3015876
L2 IP Table Write Accesses: 2374885
L2 IP Table Tag Read Accesses: 1551250
L2 IP Table Tag Write Accesses: 1551250

DRAM Statistics
 CHANNEL 0
 RQ ROW_BUFFER_HIT:     110742  ROW_BUFFER_MISS:     842645
 DBUS_CONGESTED:        239
 WQ ROW_BUFFER_HIT:      57477  ROW_BUFFER_MISS:     196665  FULL:          0

 AVG_CONGESTED_CYCLE: 4
 All warmup complete: 2
Channel 0 Bank busy for read cycles: 0
Channel 0 Bank busy for write cycles: 0
Channel 0
Rank 0
0banks busy for read cycles: 119449352
0banks busy for write cycles: 132677
1banks busy for read cycles: 44255831
1banks busy for write cycles: 19817576
2banks busy for read cycles: 24013222
2banks busy for write cycles: 8105063
3banks busy for read cycles: 7813236
3banks busy for write cycles: 3070635
4banks busy for read cycles: 2788276
4banks busy for write cycles: 1075650
5banks busy for read cycles: 778500
5banks busy for write cycles: 329446
6banks busy for read cycles: 161871
6banks busy for write cycles: 110846
7banks busy for read cycles: 24027
7banks busy for write cycles: 28446
8banks busy for read cycles: 3523
8banks busy for write cycles: 5684

CPU 0 Branch Prediction Accuracy: 95.851% MPKI: 8.63412 Average ROB Occupancy at Mispredict: 29.4306
Branch types
NOT_BRANCH: 39594523 79.189%
BRANCH_DIRECT_JUMP: 569513 1.13903%
BRANCH_INDIRECT: 168336 0.336672%
BRANCH_CONDITIONAL: 6697939 13.3959%
BRANCH_DIRECT_CALL: 886019 1.77204%
BRANCH_INDIRECT_CALL: 598662 1.19732%
BRANCH_RETURN: 1484680 2.96936%
BRANCH_OTHER: 0 0%

@sumon_overall_L1D    111642     13314    682456    794172   4501992   4501997
@Sumon_Early_by_class_L1D     96078      1575     12173       137
@Sumon_Late_by_class_L1D     12315         0       533       137

@Sumon_Early_by_cycle_L1D     20300      7631      5343      4715      1939     15297     16994      8113      5579     11435      8194      6102
@Sumon_Late_by_cycle_L1D      3666      9624        24         0         0         0         0         0         0         0         0         0
@Sumon_Early_stream_L1D     19336      6846      4546      4105      1585     13353     14903      6608      4339      9054      6353      5050
@Sumon_Early_CS_L1D         2        17        56        26         7         3       765       151       263       209        33        43
@Sumon_Early_CPLX_L1D       521       459       666       484       322      1696      1063      1256       934      2060      1745       967
@Sumon_Late_stream_L1D      3096      9197        22         0         0         0         0         0         0         0         0         0
@Sumon_Late_CS_L1D         0         0         0         0         0         0         0         0         0         0         0         0
@Sumon_Late_CPLX_L1D       228       303         2         0         0         0         0         0         0         0         0         0
@sumon_overall_L2C     40125       727    609121    649315     85637     85637
@Sumon_Early_by_class_L2C     22041        84      7013         0
@Sumon_Late_by_class_L2C         0         0         0         0

@Sumon_Early_by_cycle_L2C       907       930       422       617       405      2428      2508       543      1178       328      1925     27934
@Sumon_Late_by_cycle_L2C       410       296        21         0         0         0         0         0         0         0         0         0
@Sumon_Early_stream_L2C         0         0         0         0         0         0         0         0         1       104      1363     20573
@Sumon_Early_CS_L2C         0         0         0         0         0         0         0         0         0         0        11        73
@Sumon_Early_CPLX_L2C         0         0         0         0         0         0         0         0         0        19       381      6613
@Sumon_Late_stream_L2C         0         0         0         0         0         0         0         0         0         0         0         0
@Sumon_Late_CS_L2C         0         0         0         0         0         0         0         0         0         0         0         0
@Sumon_Late_CPLX_L2C         0         0         0         0         0         0         0         0         0         0         0         0
DRAM PAGES: 1048576
Allocated PAGES: 45883
