
*** ChampSim Multicore Out-of-Order Simulator ***

Warmup Instructions: 10000000
Simulation Instructions: 50000000
Number of CPUs: 1
LLC sets: 2048
LLC ways: 16
Off-chip DRAM Size: 4096 MB Channels: 1 Width: 64-bit Data Rate: 6400 MT/s
CPU 0 runs traces/SPEC2017/621.wrf_s-8065B.champsimtrace.xz
.xz
CPU 0 Bimodal branch predictor
BTB has LRU replacement policy
ITLB has LRU replacement policy
DTLB has LRU replacement policy
STLB has LRU replacement policy
L1I has LRU replacement policy
IP Table Entries: 256
L1D has LRU replacement policy
IP_Table L2 entries: 256
Initialize DRRIP state for L2C
LLC has LRU replacement policy
Heartbeat CPU 0 instructions: 10000002 cycles: 3025567 heartbeat IPC: 3.30517 cumulative IPC: 3.30517 (Simulation time: 0 hr 23 min 53 sec) 

Warmup complete CPU 0 instructions: 10000002 cycles: 3025567 (Simulation time: 0 hr 23 min 54 sec) 

Heartbeat CPU 0 instructions: 20000001 cycles: 12239548 heartbeat IPC: 1.08531 cumulative IPC: 1.08531 (Simulation time: 0 hr 39 min 25 sec) 
Heartbeat CPU 0 instructions: 30000000 cycles: 24414248 heartbeat IPC: 0.821375 cumulative IPC: 0.935074 (Simulation time: 0 hr 56 min 51 sec) 
Heartbeat CPU 0 instructions: 40000000 cycles: 34082203 heartbeat IPC: 1.03434 cumulative IPC: 0.965977 (Simulation time: 1 hr 15 min 44 sec) 
Heartbeat CPU 0 instructions: 50000002 cycles: 45596454 heartbeat IPC: 0.868489 cumulative IPC: 0.939609 (Simulation time: 1 hr 32 min 2 sec) 
Heartbeat CPU 0 instructions: 60000003 cycles: 55112759 heartbeat IPC: 1.05083 cumulative IPC: 0.959929 (Simulation time: 1 hr 48 min 31 sec) 
Finished CPU 0 instructions: 50000001 cycles: 52087192 cumulative IPC: 0.959929 (Simulation time: 1 hr 48 min 31 sec) 

ChampSim completed all CPUs

Region of Interest Statistics

CPU 0 cumulative IPC: 0.959929 instructions: 50000001 cycles: 52087192
ITLB TOTAL     ACCESS:    6802194  HIT:    6802166  MISS:         28  HIT %:    99.9996  MISS %: 0.000411632   MPKI: 0.00056
ITLB LOAD TRANSLATION ACCESS:    6802194  HIT:    6802166  MISS:         28  HIT %:    99.9996  MISS %: 0.000411632   MPKI: 0.00056
ITLB PREFETCH  REQUESTED:          0  ISSUED:          0  USEFUL:          0  USELESS:          0
ITLB USEFUL LOAD PREFETCHES:          0 PREFETCH ISSUED TO LOWER LEVEL:          0  ACCURACY: -nan
ITLB TIMELY PREFETCHES:          0 LATE PREFETCHES: 0 DROPPED PREFETCHES: 0
ITLB PREFETCHES SAME FILL-ORIGIN LEVEL: 0 DIFFERENT FILL-ORIGIN LEVEL: 0
ITLB AVERAGE MISS LATENCY: 251.357 cycles
ITLB RQ	ACCESS:    8149175	FORWARD:          0	MERGED:    1346973	TO_CACHE:    6802202

DTLB TOTAL     ACCESS:   11965027  HIT:   11930383  MISS:      34644  HIT %:    99.7105  MISS %:   0.289544   MPKI: 0.69288
DTLB LOAD TRANSLATION ACCESS:   11965027  HIT:   11930383  MISS:      34644  HIT %:    99.7105  MISS %:   0.289544   MPKI: 0.69288
DTLB PREFETCH  REQUESTED:          0  ISSUED:          0  USEFUL:          0  USELESS:          0
DTLB USEFUL LOAD PREFETCHES:          0 PREFETCH ISSUED TO LOWER LEVEL:          0  ACCURACY: -nan
DTLB TIMELY PREFETCHES:          0 LATE PREFETCHES: 0 DROPPED PREFETCHES: 0
DTLB PREFETCHES SAME FILL-ORIGIN LEVEL: 0 DIFFERENT FILL-ORIGIN LEVEL: 0
DTLB AVERAGE MISS LATENCY: 19.5616 cycles
DTLB RQ	ACCESS:   13282884	FORWARD:          0	MERGED:    1310905	TO_CACHE:   11971979

STLB TOTAL     ACCESS:     864949  HIT:     861820  MISS:       3129  HIT %:    99.6382  MISS %:   0.361755   MPKI: 0.06258
STLB LOAD TRANSLATION ACCESS:      34672  HIT:      31543  MISS:       3129  HIT %:    90.9754  MISS %:    9.02457   MPKI: 0.06258
STLB TRANSLATION FROM L1D PREFETCHER ACCESS:     830277  HIT:     830277  MISS:          0  HIT %:        100  MISS %:          0   MPKI: 0
STLB PREFETCH  REQUESTED:          0  ISSUED:          0  USEFUL:          0  USELESS:          0
STLB USEFUL LOAD PREFETCHES:          0 PREFETCH ISSUED TO LOWER LEVEL:          0  ACCURACY: -nan
STLB TIMELY PREFETCHES:          0 LATE PREFETCHES: 0 DROPPED PREFETCHES: 0
STLB PREFETCHES SAME FILL-ORIGIN LEVEL: 0 DIFFERENT FILL-ORIGIN LEVEL: 0
STLB AVERAGE MISS LATENCY: 117.981 cycles
STLB RQ	ACCESS:    2990014	FORWARD:          0	MERGED:    2125065	TO_CACHE:     864949

STLB Hit, L1D data hit: 0
STLB Hit, L2C data hit: 0
STLB Hit, LLC data hit: 0
STLB Hit, LLC data miss: 0
STLB STLB hints to L2: 0
L1D TOTAL     ACCESS:   15771369  HIT:   14916352  MISS:     855017  HIT %:    94.5787  MISS %:    5.42132   MPKI: 17.1003
L1D LOAD      ACCESS:   11191049  HIT:   11097456  MISS:      93593  HIT %:    99.1637  MISS %:    0.83632   MPKI: 1.87186
L1D RFO       ACCESS:    1630251  HIT:    1495639  MISS:     134612  HIT %:    91.7429  MISS %:    8.25713   MPKI: 2.69224
L1D PREFETCH  ACCESS:    2950069  HIT:    2323257  MISS:     626812  HIT %:    78.7526  MISS %:    21.2474   MPKI: 12.5362
L1D PREFETCH  REQUESTED:    6507293  ISSUED:    5911431  USEFUL:     483425  USELESS:     143358
L1D USEFUL LOAD PREFETCHES:     483425 PREFETCH ISSUED TO LOWER LEVEL:     722286  ACCURACY: 66.9299
L1D TIMELY PREFETCHES:     483425 LATE PREFETCHES: 2602 DROPPED PREFETCHES: 0
L1D PREFETCHES SAME FILL-ORIGIN LEVEL: 722286 DIFFERENT FILL-ORIGIN LEVEL: 0
L1D AVERAGE MISS LATENCY: 93418.1 cycles
L1D RQ	ACCESS:   16633845	FORWARD:          0	MERGED:    5402120	TO_CACHE:   11227017
L1D WQ	ACCESS:    2065746	FORWARD:       4709	MERGED:       9879	TO_CACHE:    2055867
L1D PQ	ACCESS:    2956089	FORWARD:          0	MERGED:        746	TO_CACHE:    2955342

L1D UNIQUE REGIONS ACCESSED: 0
L1D REGIONS CONFLICTS: 0
L1D Cross Page Prefetch Requests: 0
L1D Same Page Prefetch Requests: 4475338
L1D ROI Sum of L1D PQ occupancy: 45468652
L1D PREFETCHES PUSHED FROM L2C: 0
L1I TOTAL     ACCESS:    8148392  HIT:    8146903  MISS:       1489  HIT %:    99.9817  MISS %:  0.0182735   MPKI: 0.02978
L1I LOAD      ACCESS:    8148392  HIT:    8146903  MISS:       1489  HIT %:    99.9817  MISS %:  0.0182735   MPKI: 0.02978
L1I PREFETCH  REQUESTED:          0  ISSUED:          0  USEFUL:          0  USELESS:          0
L1I USEFUL LOAD PREFETCHES:          0 PREFETCH ISSUED TO LOWER LEVEL:          0  ACCURACY: -nan
L1I TIMELY PREFETCHES:          0 LATE PREFETCHES: 0 DROPPED PREFETCHES: 0
L1I PREFETCHES SAME FILL-ORIGIN LEVEL: 0 DIFFERENT FILL-ORIGIN LEVEL: 0
L1I AVERAGE MISS LATENCY: 206.919 cycles
L1I RQ	ACCESS:   12318261	FORWARD:          0	MERGED:    4169086	TO_CACHE:    8149175

BTB TOTAL     ACCESS:    1522699  HIT:    1522251  MISS:        448  HIT %:    99.9706  MISS %:  0.0294214   MPKI: 0.00896
BTB BRANCH_DIRECT_JUMP	ACCESS:      10290  HIT:      10246  MISS:         44
BTB BRANCH_INDIRECT	ACCESS:          4  HIT:          2  MISS:          2
BTB BRANCH_CONDITIONAL	ACCESS:    1485081  HIT:    1484854  MISS:        227
BTB BRANCH_DIRECT_CALL	ACCESS:      13662  HIT:      13597  MISS:         65
BTB BRANCH_INDIRECT_CALL	ACCESS:          0  HIT:          0  MISS:          0
BTB BRANCH_RETURN	ACCESS:      13662  HIT:      13552  MISS:        110
BTB BRANCH_OTHER ACCESS:          0  HIT:          0  MISS:          0

L2C TOTAL     ACCESS:    2708321  HIT:    2110516  MISS:     597805  HIT %:    77.9271  MISS %:    22.0729   MPKI: 11.9561
L2C LOAD      ACCESS:      92479  HIT:      64344  MISS:      28135  HIT %:    69.5769  MISS %:    30.4231   MPKI: 0.5627
L2C DATA LOAD MPKI: 0.53292
L2C INSTRUCTION LOAD MPKI: 0.02978
L2C RFO       ACCESS:     134612  HIT:      15364  MISS:     119248  HIT %:    11.4135  MISS %:    88.5865   MPKI: 2.38496
L2C PREFETCH  ACCESS:    2213987  HIT:    1767657  MISS:     446330  HIT %:    79.8404  MISS %:    20.1596   MPKI: 8.9266
L2C DATA PREFETCH MPKI: 8.9266
L2C INSTRUCTION PREFETCH MPKI: 0
L2C WRITEBACK ACCESS:     264100  HIT:     260556  MISS:       3544  HIT %:    98.6581  MISS %:    1.34192   MPKI: 0.07088
L2C LOAD TRANSLATION ACCESS:       3143  HIT:       2595  MISS:        548  HIT %:    82.5644  MISS %:    17.4356   MPKI: 0.01096
L2C PREFETCH  REQUESTED:    2261095  ISSUED:    2068516  USEFUL:      24202  USELESS:     421815
L2C USEFUL LOAD PREFETCHES:      24202 PREFETCH ISSUED TO LOWER LEVEL:     446452  ACCURACY: 5.42096
L2C TIMELY PREFETCHES:      24202 LATE PREFETCHES: 122 DROPPED PREFETCHES: 0
L2C PREFETCHES SAME FILL-ORIGIN LEVEL: 256552 DIFFERENT FILL-ORIGIN LEVEL: 0
L2C AVERAGE MISS LATENCY: 141.554 cycles
L2C RQ	ACCESS:     230235	FORWARD:          0	MERGED:          0	TO_CACHE:     230234
L2C WQ	ACCESS:     264100	FORWARD:         28	MERGED:          0	TO_CACHE:     264100
L2C PQ	ACCESS:    2697930	FORWARD:          0	MERGED:     443275	TO_CACHE:    2254628

L2C Instructions Evicting Data 1488
L2C Translations Evicting Data 548
L2C Data Evicting Data 590170
L2C Instructions Evicting Instructions 1
L2C Translations Evicting Instructions 0
L2C Data Evicting Instructions 1476
L2C Instructions Evicting Translations 0
L2C Translations Evicting Translations 0
L2C Data Evicting Translations 578
L2C Dense regions hint from L2: 0
PSCL5 TOTAL     ACCESS:       3129  HIT:       3129  MISS:          0  HIT %:        100  MISS %:          0   MPKI: 0
PSCL5 LOAD TRANSLATION ACCESS:       3129  HIT:       3129  MISS:          0  HIT %:        100  MISS %:          0   MPKI: 0
PSCL5 PREFETCH  REQUESTED:          0  ISSUED:          0  USEFUL:          0  USELESS:          0
PSCL5 USEFUL LOAD PREFETCHES:          0 PREFETCH ISSUED TO LOWER LEVEL:          0  ACCURACY: -nan
PSCL5 TIMELY PREFETCHES:          0 LATE PREFETCHES: 0 DROPPED PREFETCHES: 0
PSCL5 PREFETCHES SAME FILL-ORIGIN LEVEL: 0 DIFFERENT FILL-ORIGIN LEVEL: 0

PSCL4 TOTAL     ACCESS:       3129  HIT:       3129  MISS:          0  HIT %:        100  MISS %:          0   MPKI: 0
PSCL4 LOAD TRANSLATION ACCESS:       3129  HIT:       3129  MISS:          0  HIT %:        100  MISS %:          0   MPKI: 0
PSCL4 PREFETCH  REQUESTED:          0  ISSUED:          0  USEFUL:          0  USELESS:          0
PSCL4 USEFUL LOAD PREFETCHES:          0 PREFETCH ISSUED TO LOWER LEVEL:          0  ACCURACY: -nan
PSCL4 TIMELY PREFETCHES:          0 LATE PREFETCHES: 0 DROPPED PREFETCHES: 0
PSCL4 PREFETCHES SAME FILL-ORIGIN LEVEL: 0 DIFFERENT FILL-ORIGIN LEVEL: 0

PSCL3 TOTAL     ACCESS:       3129  HIT:       3129  MISS:          0  HIT %:        100  MISS %:          0   MPKI: 0
PSCL3 LOAD TRANSLATION ACCESS:       3129  HIT:       3129  MISS:          0  HIT %:        100  MISS %:          0   MPKI: 0
PSCL3 PREFETCH  REQUESTED:          0  ISSUED:          0  USEFUL:          0  USELESS:          0
PSCL3 USEFUL LOAD PREFETCHES:          0 PREFETCH ISSUED TO LOWER LEVEL:          0  ACCURACY: -nan
PSCL3 TIMELY PREFETCHES:          0 LATE PREFETCHES: 0 DROPPED PREFETCHES: 0
PSCL3 PREFETCHES SAME FILL-ORIGIN LEVEL: 0 DIFFERENT FILL-ORIGIN LEVEL: 0

PSCL2 TOTAL     ACCESS:       3129  HIT:       3106  MISS:         23  HIT %:    99.2649  MISS %:   0.735059   MPKI: 0.00046
PSCL2 LOAD TRANSLATION ACCESS:       3129  HIT:       3106  MISS:         23  HIT %:    99.2649  MISS %:   0.735059   MPKI: 0.00046
PSCL2 PREFETCH  REQUESTED:          0  ISSUED:          0  USEFUL:          0  USELESS:          0
PSCL2 USEFUL LOAD PREFETCHES:          0 PREFETCH ISSUED TO LOWER LEVEL:          0  ACCURACY: -nan
PSCL2 TIMELY PREFETCHES:          0 LATE PREFETCHES: 0 DROPPED PREFETCHES: 0
PSCL2 PREFETCHES SAME FILL-ORIGIN LEVEL: 0 DIFFERENT FILL-ORIGIN LEVEL: 0

LLC TOTAL     ACCESS:     834752  HIT:     517549  MISS:     317203  HIT %:    62.0003  MISS %:    37.9997   MPKI: 6.34406
LLC LOAD      ACCESS:      28013  HIT:      12312  MISS:      15701  HIT %:     43.951  MISS %:     56.049   MPKI: 0.31402
LLC RFO       ACCESS:     119248  HIT:      21529  MISS:      97719  HIT %:     18.054  MISS %:     81.946   MPKI: 1.95438
LLC PREFETCH  ACCESS:     446440  HIT:     243545  MISS:     202895  HIT %:    54.5527  MISS %:    45.4473   MPKI: 4.0579
LLC WRITEBACK ACCESS:     240503  HIT:     240133  MISS:        370  HIT %:    99.8462  MISS %:   0.153844   MPKI: 0.0074
LLC LOAD TRANSLATION ACCESS:        548  HIT:         30  MISS:        518  HIT %:    5.47445  MISS %:    94.5255   MPKI: 0.01036
LLC PREFETCH  REQUESTED:          0  ISSUED:          0  USEFUL:       5775  USELESS:     178184
LLC USEFUL LOAD PREFETCHES:       5775 PREFETCH ISSUED TO LOWER LEVEL:     202895  ACCURACY: 2.8463
LLC TIMELY PREFETCHES:       5775 LATE PREFETCHES: 0 DROPPED PREFETCHES: 0
LLC PREFETCHES SAME FILL-ORIGIN LEVEL: 0 DIFFERENT FILL-ORIGIN LEVEL: 0
LLC AVERAGE MISS LATENCY: 210.284 cycles
LLC RQ	ACCESS:     147809	FORWARD:          0	MERGED:          0	TO_CACHE:     147809
LLC WQ	ACCESS:     240503	FORWARD:         12	MERGED:          0	TO_CACHE:     240503
LLC PQ	ACCESS:     446452	FORWARD:          0	MERGED:          0	TO_CACHE:     446440

LLC Dense regions hint to LLC: 0

RAW hits: 24041
Loads Generated: 16657890
Loads sent to L1D: 16633845
Stores Generated: 2065746
Stores sent to L1D: 2065746
Major fault: 0 Minor fault: 5259
Allocated PAGES: 5259

stream: 
stream:times selected: 1948988
stream:pref_filled: 884009
stream:pref_useful: 696644
stream:pref_late: 4097
stream:misses: 9682
stream:misses_by_poll: 0

CS: 
CS:times selected: 1806608
CS:pref_filled: 99787
CS:pref_useful: 69312
CS:pref_late: 336
CS:misses: 154094
CS:misses_by_poll: 563

CPLX: 
CPLX:times selected: 142271
CPLX:pref_filled: 31004
CPLX:pref_useful: 21305
CPLX:pref_late: 44
CPLX:misses: 11799
CPLX:misses_by_poll: 72

NL_L1: 
NL:times selected: 535
NL:pref_filled: 234
NL:pref_useful: 9
NL:pref_late: 4
NL:misses: 352
NL:misses_by_poll: 0

total selections: 3898402
total_filled: 626812
total_useful: 483425
total_late: 4670
total_polluted: 635
total_misses_after_warmup: 129560
conflicts: 21683
Degree Incremented Times: 68759
Degree Decremented Times: 0

L1 IP Table Write Accesses: 11160602
L1 IP Table Read Accesses: 11138919
L1 RST Write Accesses: 1355710
L1 RST Read Accesses: 2711420
L1 CSPT Write Accesses: 1355710
L1 CSPT Read Accesses: 1686817
L1 RR Filter Tag Write Accesses: 3551951
L1 RR Filter Tag Read Accesses: 288131044
L1 IP Table Tag Write Accesses: 11227016
L1 IP Table Tag Read Accesses: 11227016
L1 RST Tag Write Accesses: 0
L1 RST Tag Read Accesses: 12194803
L1 RR Filter Write Accesses: 0
L1 RR Filter Read Accesses: 11476004
test: 104804
L2 IP Table Read Accesses: 1321415
L2 IP Table Write Accesses: 1233833
L2 IP Table Tag Read Accesses: 662417
L2 IP Table Tag Write Accesses: 662417

DRAM Statistics
 CHANNEL 0
 RQ ROW_BUFFER_HIT:     107016  ROW_BUFFER_MISS:     209685
 DBUS_CONGESTED:        142
 WQ ROW_BUFFER_HIT:      46773  ROW_BUFFER_MISS:     118830  FULL:          0

 AVG_CONGESTED_CYCLE: 4
 All warmup complete: 2
Channel 0 Bank busy for read cycles: 0
Channel 0 Bank busy for write cycles: 0
Channel 0
Rank 0
0banks busy for read cycles: 28690916
0banks busy for write cycles: 31436
1banks busy for read cycles: 7318321
1banks busy for write cycles: 3128119
2banks busy for read cycles: 3860689
2banks busy for write cycles: 1766306
3banks busy for read cycles: 1260788
3banks busy for write cycles: 429819
4banks busy for read cycles: 853545
4banks busy for write cycles: 259839
5banks busy for read cycles: 396213
5banks busy for write cycles: 187688
6banks busy for read cycles: 285419
6banks busy for write cycles: 151114
7banks busy for read cycles: 605625
7banks busy for write cycles: 361147
8banks busy for read cycles: 875854
8banks busy for write cycles: 1624355

CPU 0 Branch Prediction Accuracy: 95.9166% MPKI: 1.36026 Average ROB Occupancy at Mispredict: 43.0012
Branch types
NOT_BRANCH: 48334087 96.6682%
BRANCH_DIRECT_JUMP: 10290 0.02058%
BRANCH_INDIRECT: 4 8e-06%
BRANCH_CONDITIONAL: 1627965 3.25593%
BRANCH_DIRECT_CALL: 13662 0.027324%
BRANCH_INDIRECT_CALL: 0 0%
BRANCH_RETURN: 13662 0.027324%
BRANCH_OTHER: 0 0%

@sumon_overall_L1D    483425      2602    143358    626812   5911431   6507293
@Sumon_Early_by_class_L1D    429636     39594     14077         3
@Sumon_Late_by_class_L1D      2379        58         8         3

@Sumon_Early_by_cycle_L1D      7761     24928     88248     51782     14660    100397    161674     20928      5344      1929      5101       673
@Sumon_Late_by_cycle_L1D      1668       842        64        16         7         5         0         0         0         0         0         0
@Sumon_Early_stream_L1D      7572     24514     85018     44733      7991     85125    160097      5821      2944       902      4507       412
@Sumon_Early_CS_L1D       147       317      1629      4750      4751     11490       301     13311      1485       788       544        81
@Sumon_Early_CPLX_L1D        14        76      1558      2294      1913      3774      1273      1794       914       239        48       180
@Sumon_Late_stream_L1D      1478       817        60        13         7         4         0         0         0         0         0         0
@Sumon_Late_CS_L1D        34        19         2         2         0         1         0         0         0         0         0         0
@Sumon_Late_CPLX_L1D         5         1         1         1         0         0         0         0         0         0         0         0
@sumon_overall_L2C     24202       122    421815    446330   2068516   2261095
@Sumon_Early_by_class_L2C     23424       395       132         0
@Sumon_Late_by_class_L2C        82         1         0         0

@Sumon_Early_by_cycle_L2C        99       253       641       537       661      6764      5162      2053       895       345      3961      2831
@Sumon_Late_by_cycle_L2C        90        27         5         0         0         0         0         0         0         0         0         0
@Sumon_Early_stream_L2C        63       226       605       507       645      6661      5103      2033       868       259      3837      2617
@Sumon_Early_CS_L2C         1         0         0         4         1        49        27         5         1        62        83       162
@Sumon_Early_CPLX_L2C         0         0         0         0         0         3        13         9        18        15        28        46
@Sumon_Late_stream_L2C        64        15         3         0         0         0         0         0         0         0         0         0
@Sumon_Late_CS_L2C         1         0         0         0         0         0         0         0         0         0         0         0
@Sumon_Late_CPLX_L2C         0         0         0         0         0         0         0         0         0         0         0         0
DRAM PAGES: 1048576
Allocated PAGES: 5259
