
*** ChampSim Multicore Out-of-Order Simulator ***

Warmup Instructions: 10000000
Simulation Instructions: 50000000
Number of CPUs: 1
LLC sets: 2048
LLC ways: 16
Off-chip DRAM Size: 4096 MB Channels: 1 Width: 64-bit Data Rate: 6400 MT/s
CPU 0 runs traces/SPEC2017/649.fotonik3d_s-7084B.champsimtrace.xz
.xz
CPU 0 Bimodal branch predictor
BTB has LRU replacement policy
ITLB has LRU replacement policy
DTLB has LRU replacement policy
STLB has LRU replacement policy
L1I has LRU replacement policy
IP Table Entries: 256
L1D has LRU replacement policy
IP_Table L2 entries: 256
Initialize DRRIP state for L2C
LLC has LRU replacement policy
Heartbeat CPU 0 instructions: 10000001 cycles: 2908403 heartbeat IPC: 3.43831 cumulative IPC: 3.43831 (Simulation time: 0 hr 25 min 12 sec) 

Warmup complete CPU 0 instructions: 10000001 cycles: 2908403 (Simulation time: 0 hr 25 min 12 sec) 

Heartbeat CPU 0 instructions: 20000002 cycles: 13088337 heartbeat IPC: 0.982325 cumulative IPC: 0.982325 (Simulation time: 0 hr 44 min 26 sec) 
Heartbeat CPU 0 instructions: 30000002 cycles: 23246448 heartbeat IPC: 0.984435 cumulative IPC: 0.983379 (Simulation time: 1 hr 3 min 33 sec) 
Heartbeat CPU 0 instructions: 40000003 cycles: 33413997 heartbeat IPC: 0.983521 cumulative IPC: 0.983426 (Simulation time: 1 hr 22 min 53 sec) 
Heartbeat CPU 0 instructions: 50000002 cycles: 43573306 heartbeat IPC: 0.984319 cumulative IPC: 0.983649 (Simulation time: 1 hr 41 min 53 sec) 
Heartbeat CPU 0 instructions: 60000002 cycles: 53733038 heartbeat IPC: 0.984278 cumulative IPC: 0.983775 (Simulation time: 1 hr 57 min 23 sec) 
Finished CPU 0 instructions: 50000001 cycles: 50824635 cumulative IPC: 0.983775 (Simulation time: 1 hr 57 min 23 sec) 

ChampSim completed all CPUs

Region of Interest Statistics

CPU 0 cumulative IPC: 0.983775 instructions: 50000001 cycles: 50824635
ITLB TOTAL     ACCESS:    6086254  HIT:    6086254  MISS:          0  HIT %:        100  MISS %:          0   MPKI: 0
ITLB LOAD TRANSLATION ACCESS:    6086254  HIT:    6086254  MISS:          0  HIT %:        100  MISS %:          0   MPKI: 0
ITLB PREFETCH  REQUESTED:          0  ISSUED:          0  USEFUL:          0  USELESS:          0
ITLB USEFUL LOAD PREFETCHES:          0 PREFETCH ISSUED TO LOWER LEVEL:          0  ACCURACY: -nan
ITLB TIMELY PREFETCHES:          0 LATE PREFETCHES: 0 DROPPED PREFETCHES: 0
ITLB PREFETCHES SAME FILL-ORIGIN LEVEL: 0 DIFFERENT FILL-ORIGIN LEVEL: 0
ITLB AVERAGE MISS LATENCY: -nan cycles
ITLB RQ	ACCESS:    7429848	FORWARD:          0	MERGED:    1343593	TO_CACHE:    6086255

DTLB TOTAL     ACCESS:   13368614  HIT:   13299083  MISS:      69531  HIT %:    99.4799  MISS %:   0.520106   MPKI: 1.39062
DTLB LOAD TRANSLATION ACCESS:   13368614  HIT:   13299083  MISS:      69531  HIT %:    99.4799  MISS %:   0.520106   MPKI: 1.39062
DTLB PREFETCH  REQUESTED:          0  ISSUED:          0  USEFUL:          0  USELESS:          0
DTLB USEFUL LOAD PREFETCHES:          0 PREFETCH ISSUED TO LOWER LEVEL:          0  ACCURACY: -nan
DTLB TIMELY PREFETCHES:          0 LATE PREFETCHES: 0 DROPPED PREFETCHES: 0
DTLB PREFETCHES SAME FILL-ORIGIN LEVEL: 0 DIFFERENT FILL-ORIGIN LEVEL: 0
DTLB AVERAGE MISS LATENCY: 35.912 cycles
DTLB RQ	ACCESS:   14654237	FORWARD:          0	MERGED:    1284290	TO_CACHE:   13369947

STLB TOTAL     ACCESS:    1267842  HIT:    1254196  MISS:      13646  HIT %:    98.9237  MISS %:    1.07632   MPKI: 0.27292
STLB LOAD TRANSLATION ACCESS:      69531  HIT:      55885  MISS:      13646  HIT %:    80.3742  MISS %:    19.6258   MPKI: 0.27292
STLB TRANSLATION FROM L1D PREFETCHER ACCESS:    1198311  HIT:    1198311  MISS:          0  HIT %:        100  MISS %:          0   MPKI: 0
STLB PREFETCH  REQUESTED:          0  ISSUED:          0  USEFUL:          0  USELESS:          0
STLB USEFUL LOAD PREFETCHES:          0 PREFETCH ISSUED TO LOWER LEVEL:          0  ACCURACY: -nan
STLB TIMELY PREFETCHES:          0 LATE PREFETCHES: 0 DROPPED PREFETCHES: 0
STLB PREFETCHES SAME FILL-ORIGIN LEVEL: 0 DIFFERENT FILL-ORIGIN LEVEL: 0
STLB AVERAGE MISS LATENCY: 135.934 cycles
STLB RQ	ACCESS:    6519113	FORWARD:          0	MERGED:    5251271	TO_CACHE:    1267842

STLB Hit, L1D data hit: 0
STLB Hit, L2C data hit: 0
STLB Hit, LLC data hit: 0
STLB Hit, LLC data miss: 0
STLB STLB hints to L2: 0
L1D TOTAL     ACCESS:   21098661  HIT:   20221812  MISS:     876849  HIT %:    95.8441  MISS %:    4.15595   MPKI: 17.537
L1D LOAD      ACCESS:   12192658  HIT:   12177624  MISS:      15034  HIT %:    99.8767  MISS %:   0.123304   MPKI: 0.30068
L1D RFO       ACCESS:    2458592  HIT:    2458592  MISS:          0  HIT %:        100  MISS %:          0   MPKI: 0
L1D PREFETCH  ACCESS:    6447411  HIT:    5585596  MISS:     861815  HIT %:    86.6332  MISS %:    13.3668   MPKI: 17.2363
L1D PREFETCH  REQUESTED:   13186367  ISSUED:   12899342  USEFUL:     804325  USELESS:      57513
L1D USEFUL LOAD PREFETCHES:     804325 PREFETCH ISSUED TO LOWER LEVEL:     863941  ACCURACY: 93.0995
L1D TIMELY PREFETCHES:     804325 LATE PREFETCHES: 153 DROPPED PREFETCHES: 0
L1D PREFETCHES SAME FILL-ORIGIN LEVEL: 863941 DIFFERENT FILL-ORIGIN LEVEL: 0
L1D AVERAGE MISS LATENCY: 5288.7 cycles
L1D RQ	ACCESS:   17597335	FORWARD:          0	MERGED:    5391323	TO_CACHE:   12195645
L1D WQ	ACCESS:    2458592	FORWARD:      10367	MERGED:          0	TO_CACHE:    2458592
L1D PQ	ACCESS:    6449760	FORWARD:          0	MERGED:        178	TO_CACHE:    6449582

L1D UNIQUE REGIONS ACCESSED: 0
L1D REGIONS CONFLICTS: 0
L1D Cross Page Prefetch Requests: 0
L1D Same Page Prefetch Requests: 7723726
L1D ROI Sum of L1D PQ occupancy: 92918128
L1D PREFETCHES PUSHED FROM L2C: 0
L1I TOTAL     ACCESS:    7429847  HIT:    7429847  MISS:          0  HIT %:        100  MISS %:          0   MPKI: 0
L1I LOAD      ACCESS:    7429847  HIT:    7429847  MISS:          0  HIT %:        100  MISS %:          0   MPKI: 0
L1I PREFETCH  REQUESTED:          0  ISSUED:          0  USEFUL:          0  USELESS:          0
L1I USEFUL LOAD PREFETCHES:          0 PREFETCH ISSUED TO LOWER LEVEL:          0  ACCURACY: -nan
L1I TIMELY PREFETCHES:          0 LATE PREFETCHES: 0 DROPPED PREFETCHES: 0
L1I PREFETCHES SAME FILL-ORIGIN LEVEL: 0 DIFFERENT FILL-ORIGIN LEVEL: 0
L1I AVERAGE MISS LATENCY: -nan cycles
L1I RQ	ACCESS:   10819183	FORWARD:          0	MERGED:    3389335	TO_CACHE:    7429848

BTB TOTAL     ACCESS:     336775  HIT:     336772  MISS:          3  HIT %:    99.9991  MISS %: 0.000890802   MPKI: 6e-05
BTB BRANCH_DIRECT_JUMP	ACCESS:          0  HIT:          0  MISS:          0
BTB BRANCH_INDIRECT	ACCESS:          0  HIT:          0  MISS:          0
BTB BRANCH_CONDITIONAL	ACCESS:     336775  HIT:     336772  MISS:          3
BTB BRANCH_DIRECT_CALL	ACCESS:          0  HIT:          0  MISS:          0
BTB BRANCH_INDIRECT_CALL	ACCESS:          0  HIT:          0  MISS:          0
BTB BRANCH_RETURN	ACCESS:          0  HIT:          0  MISS:          0
BTB BRANCH_OTHER ACCESS:          0  HIT:          0  MISS:          0

L2C TOTAL     ACCESS:    4979766  HIT:    4100140  MISS:     879626  HIT %:     82.336  MISS %:     17.664   MPKI: 17.5925
L2C LOAD      ACCESS:      14881  HIT:       1054  MISS:      13827  HIT %:    7.08286  MISS %:    92.9171   MPKI: 0.27654
L2C DATA LOAD MPKI: 0.27654
L2C INSTRUCTION LOAD MPKI: 0
L2C PREFETCH  ACCESS:    4691371  HIT:    3828774  MISS:     862597  HIT %:    81.6131  MISS %:    18.3869   MPKI: 17.2519
L2C DATA PREFETCH MPKI: 17.2519
L2C INSTRUCTION PREFETCH MPKI: 0
L2C WRITEBACK ACCESS:     259868  HIT:     258540  MISS:       1328  HIT %:     99.489  MISS %:   0.511029   MPKI: 0.02656
L2C LOAD TRANSLATION ACCESS:      13646  HIT:      11772  MISS:       1874  HIT %:     86.267  MISS %:     13.733   MPKI: 0.03748
L2C PREFETCH  REQUESTED:    4448710  ISSUED:    4432944  USEFUL:        560  USELESS:     862053
L2C USEFUL LOAD PREFETCHES:        560 PREFETCH ISSUED TO LOWER LEVEL:     862606  ACCURACY: 0.0649196
L2C TIMELY PREFETCHES:        560 LATE PREFETCHES: 7 DROPPED PREFETCHES: 0
L2C PREFETCHES SAME FILL-ORIGIN LEVEL: 760058 DIFFERENT FILL-ORIGIN LEVEL: 0
L2C AVERAGE MISS LATENCY: 215.419 cycles
L2C RQ	ACCESS:      28527	FORWARD:          0	MERGED:          0	TO_CACHE:      28527
L2C WQ	ACCESS:     259868	FORWARD:          0	MERGED:          0	TO_CACHE:     259868
L2C PQ	ACCESS:    5294913	FORWARD:          0	MERGED:     579461	TO_CACHE:    4715452

L2C Instructions Evicting Data 0
L2C Translations Evicting Data 1872
L2C Data Evicting Data 874578
L2C Instructions Evicting Instructions 0
L2C Translations Evicting Instructions 0
L2C Data Evicting Instructions 0
L2C Instructions Evicting Translations 0
L2C Translations Evicting Translations 2
L2C Data Evicting Translations 1846
L2C Dense regions hint from L2: 0
PSCL5 TOTAL     ACCESS:      13646  HIT:      13646  MISS:          0  HIT %:        100  MISS %:          0   MPKI: 0
PSCL5 LOAD TRANSLATION ACCESS:      13646  HIT:      13646  MISS:          0  HIT %:        100  MISS %:          0   MPKI: 0
PSCL5 PREFETCH  REQUESTED:          0  ISSUED:          0  USEFUL:          0  USELESS:          0
PSCL5 USEFUL LOAD PREFETCHES:          0 PREFETCH ISSUED TO LOWER LEVEL:          0  ACCURACY: -nan
PSCL5 TIMELY PREFETCHES:          0 LATE PREFETCHES: 0 DROPPED PREFETCHES: 0
PSCL5 PREFETCHES SAME FILL-ORIGIN LEVEL: 0 DIFFERENT FILL-ORIGIN LEVEL: 0

PSCL4 TOTAL     ACCESS:      13646  HIT:      13646  MISS:          0  HIT %:        100  MISS %:          0   MPKI: 0
PSCL4 LOAD TRANSLATION ACCESS:      13646  HIT:      13646  MISS:          0  HIT %:        100  MISS %:          0   MPKI: 0
PSCL4 PREFETCH  REQUESTED:          0  ISSUED:          0  USEFUL:          0  USELESS:          0
PSCL4 USEFUL LOAD PREFETCHES:          0 PREFETCH ISSUED TO LOWER LEVEL:          0  ACCURACY: -nan
PSCL4 TIMELY PREFETCHES:          0 LATE PREFETCHES: 0 DROPPED PREFETCHES: 0
PSCL4 PREFETCHES SAME FILL-ORIGIN LEVEL: 0 DIFFERENT FILL-ORIGIN LEVEL: 0

PSCL3 TOTAL     ACCESS:      13646  HIT:      13646  MISS:          0  HIT %:        100  MISS %:          0   MPKI: 0
PSCL3 LOAD TRANSLATION ACCESS:      13646  HIT:      13646  MISS:          0  HIT %:        100  MISS %:          0   MPKI: 0
PSCL3 PREFETCH  REQUESTED:          0  ISSUED:          0  USEFUL:          0  USELESS:          0
PSCL3 USEFUL LOAD PREFETCHES:          0 PREFETCH ISSUED TO LOWER LEVEL:          0  ACCURACY: -nan
PSCL3 TIMELY PREFETCHES:          0 LATE PREFETCHES: 0 DROPPED PREFETCHES: 0
PSCL3 PREFETCHES SAME FILL-ORIGIN LEVEL: 0 DIFFERENT FILL-ORIGIN LEVEL: 0

PSCL2 TOTAL     ACCESS:      13646  HIT:      13625  MISS:         21  HIT %:    99.8461  MISS %:   0.153891   MPKI: 0.00042
PSCL2 LOAD TRANSLATION ACCESS:      13646  HIT:      13625  MISS:         21  HIT %:    99.8461  MISS %:   0.153891   MPKI: 0.00042
PSCL2 PREFETCH  REQUESTED:          0  ISSUED:          0  USEFUL:          0  USELESS:          0
PSCL2 USEFUL LOAD PREFETCHES:          0 PREFETCH ISSUED TO LOWER LEVEL:          0  ACCURACY: -nan
PSCL2 TIMELY PREFETCHES:          0 LATE PREFETCHES: 0 DROPPED PREFETCHES: 0
PSCL2 PREFETCHES SAME FILL-ORIGIN LEVEL: 0 DIFFERENT FILL-ORIGIN LEVEL: 0

LLC TOTAL     ACCESS:    1137998  HIT:     263284  MISS:     874714  HIT %:    23.1357  MISS %:    76.8643   MPKI: 17.4943
LLC LOAD      ACCESS:      13820  HIT:         20  MISS:      13800  HIT %:   0.144718  MISS %:    99.8553   MPKI: 0.276
LLC PREFETCH  ACCESS:     862604  HIT:       5530  MISS:     857074  HIT %:   0.641082  MISS %:    99.3589   MPKI: 17.1415
LLC WRITEBACK ACCESS:     259700  HIT:     257606  MISS:       2094  HIT %:    99.1937  MISS %:   0.806315   MPKI: 0.04188
LLC LOAD TRANSLATION ACCESS:       1874  HIT:        128  MISS:       1746  HIT %:    6.83031  MISS %:    93.1697   MPKI: 0.03492
LLC PREFETCH  REQUESTED:          0  ISSUED:          0  USEFUL:          1  USELESS:     857099
LLC USEFUL LOAD PREFETCHES:          1 PREFETCH ISSUED TO LOWER LEVEL:     857076  ACCURACY: 0.000116676
LLC TIMELY PREFETCHES:          1 LATE PREFETCHES: 0 DROPPED PREFETCHES: 0
LLC PREFETCHES SAME FILL-ORIGIN LEVEL: 0 DIFFERENT FILL-ORIGIN LEVEL: 0
LLC AVERAGE MISS LATENCY: 185.431 cycles
LLC RQ	ACCESS:      15694	FORWARD:          0	MERGED:          0	TO_CACHE:      15694
LLC WQ	ACCESS:     259700	FORWARD:          0	MERGED:          0	TO_CACHE:     259700
LLC PQ	ACCESS:     862606	FORWARD:          0	MERGED:          0	TO_CACHE:     862606

LLC Dense regions hint to LLC: 0

RAW hits: 89071
Loads Generated: 17686394
Loads sent to L1D: 17597335
Stores Generated: 2458593
Stores sent to L1D: 2458592
Major fault: 0 Minor fault: 13917
Allocated PAGES: 13917

stream: 
stream:times selected: 2069647
stream:pref_filled: 1021873
stream:pref_useful: 955759
stream:pref_late: 156
stream:misses: 74
stream:misses_by_poll: 0

CS: 
CS:times selected: 1801654
CS:pref_filled: 5348
CS:pref_useful: 5027
CS:pref_late: 0
CS:misses: 19837
CS:misses_by_poll: 14

CPLX: 
CPLX:times selected: 267881
CPLX:pref_filled: 7035
CPLX:pref_useful: 4417
CPLX:pref_late: 0
CPLX:misses: 188
CPLX:misses_by_poll: 8

NL_L1: 
NL:times selected: 8
NL:pref_filled: 5
NL:pref_useful: 5
NL:pref_late: 0
NL:misses: 0
NL:misses_by_poll: 0

total selections: 4139190
total_filled: 861815
total_useful: 804325
total_late: 161
total_polluted: 22
total_misses_after_warmup: 18024
conflicts: 10766
Degree Incremented Times: 92843
Degree Decremented Times: 0

L1 IP Table Write Accesses: 11792444
L1 IP Table Read Accesses: 11781678
L1 RST Write Accesses: 1722861
L1 RST Read Accesses: 3445722
L1 CSPT Write Accesses: 1722861
L1 CSPT Read Accesses: 2397865
L1 RR Filter Tag Write Accesses: 6736785
L1 RR Filter Tag Read Accesses: 405138896
L1 IP Table Tag Write Accesses: 12195648
L1 IP Table Tag Read Accesses: 12195648
L1 RST Tag Write Accesses: 0
L1 RST Tag Read Accesses: 15916985
L1 RR Filter Write Accesses: 0
L1 RR Filter Read Accesses: 14788269
test: 46981
L2 IP Table Read Accesses: 1597240
L2 IP Table Write Accesses: 1582474
L2 IP Table Tag Read Accesses: 798675
L2 IP Table Tag Write Accesses: 798675

DRAM Statistics
 CHANNEL 0
 RQ ROW_BUFFER_HIT:     273585  ROW_BUFFER_MISS:     599036
 DBUS_CONGESTED:        564
 WQ ROW_BUFFER_HIT:     115966  ROW_BUFFER_MISS:     144255  FULL:          0

 AVG_CONGESTED_CYCLE: 4
 All warmup complete: 2
Channel 0 Bank busy for read cycles: 0
Channel 0 Bank busy for write cycles: 0
Channel 0
Rank 0
0banks busy for read cycles: 573154
0banks busy for write cycles: 2791
1banks busy for read cycles: 13727308
1banks busy for write cycles: 399806
2banks busy for read cycles: 12098106
2banks busy for write cycles: 346673
3banks busy for read cycles: 6709635
3banks busy for write cycles: 294816
4banks busy for read cycles: 2836427
4banks busy for write cycles: 286215
5banks busy for read cycles: 1254110
5banks busy for write cycles: 308879
6banks busy for read cycles: 898961
6banks busy for write cycles: 366080
7banks busy for read cycles: 2174492
7banks busy for write cycles: 769247
8banks busy for read cycles: 983760
8banks busy for write cycles: 6794176

CPU 0 Branch Prediction Accuracy: 99.186% MPKI: 0.0562 Average ROB Occupancy at Mispredict: 56.8196
Branch types
NOT_BRANCH: 49654460 99.3089%
BRANCH_DIRECT_JUMP: 0 0%
BRANCH_INDIRECT: 0 0%
BRANCH_CONDITIONAL: 345199 0.690398%
BRANCH_DIRECT_CALL: 0 0%
BRANCH_INDIRECT_CALL: 0 0%
BRANCH_RETURN: 0 0%
BRANCH_OTHER: 0 0%

@sumon_overall_L1D    804325       153     57513    861815  12899342  13186367
@Sumon_Early_by_class_L1D    796108      4134      4083         0
@Sumon_Late_by_class_L1D       148         0         0         0

@Sumon_Early_by_cycle_L1D       357      1584      8907      2672      9535    142243    521054    112042      3916      1175       840         0
@Sumon_Late_by_cycle_L1D        87        44        20         1         1         0         0         0         0         0         0         0
@Sumon_Early_stream_L1D       352      1581      8899      2655      9521    141563    520512    111025         0         0         0         0
@Sumon_Early_CS_L1D         3         2         7        17        11       615       167         2      1415      1055       840         0
@Sumon_Early_CPLX_L1D         2         1         1         0         3        65       375      1015      2501       120         0         0
@Sumon_Late_stream_L1D        82        44        20         1         1         0         0         0         0         0         0         0
@Sumon_Late_CS_L1D         0         0         0         0         0         0         0         0         0         0         0         0
@Sumon_Late_CPLX_L1D         0         0         0         0         0         0         0         0         0         0         0         0
@sumon_overall_L2C       560         7    862053    862597   4432944   4448710
@Sumon_Early_by_class_L2C       552         4         0         0
@Sumon_Late_by_class_L2C         7         0         0         0

@Sumon_Early_by_cycle_L2C        16        17        43         8        39        78       301        55         0         1         0         2
@Sumon_Late_by_cycle_L2C         6         1         0         0         0         0         0         0         0         0         0         0
@Sumon_Early_stream_L2C        12        17        43         8        39        75       301        55         0         0         0         2
@Sumon_Early_CS_L2C         0         0         0         0         0         3         0         0         0         1         0         0
@Sumon_Early_CPLX_L2C         0         0         0         0         0         0         0         0         0         0         0         0
@Sumon_Late_stream_L2C         6         1         0         0         0         0         0         0         0         0         0         0
@Sumon_Late_CS_L2C         0         0         0         0         0         0         0         0         0         0         0         0
@Sumon_Late_CPLX_L2C         0         0         0         0         0         0         0         0         0         0         0         0
DRAM PAGES: 1048576
Allocated PAGES: 13917
