
*** ChampSim Multicore Out-of-Order Simulator ***

Warmup Instructions: 10000000
Simulation Instructions: 50000000
Number of CPUs: 1
LLC sets: 2048
LLC ways: 16
Off-chip DRAM Size: 4096 MB Channels: 1 Width: 64-bit Data Rate: 6400 MT/s
CPU 0 runs traces/SPEC2017/654.roms_s-294B.champsimtrace.xz
.xz
CPU 0 Bimodal branch predictor
BTB has LRU replacement policy
ITLB has LRU replacement policy
DTLB has LRU replacement policy
STLB has LRU replacement policy
L1I has LRU replacement policy
IP Table Entries: 256
L1D has LRU replacement policy
IP_Table L2 entries: 256
Initialize DRRIP state for L2C
LLC has LRU replacement policy
Heartbeat CPU 0 instructions: 10000001 cycles: 3208138 heartbeat IPC: 3.11707 cumulative IPC: 3.11707 (Simulation time: 0 hr 27 min 11 sec) 

Warmup complete CPU 0 instructions: 10000001 cycles: 3208138 (Simulation time: 0 hr 27 min 11 sec) 

Heartbeat CPU 0 instructions: 20000000 cycles: 12766966 heartbeat IPC: 1.04615 cumulative IPC: 1.04615 (Simulation time: 0 hr 46 min 46 sec) 
Heartbeat CPU 0 instructions: 30000003 cycles: 22321234 heartbeat IPC: 1.04665 cumulative IPC: 1.0464 (Simulation time: 1 hr 6 min 28 sec) 
Heartbeat CPU 0 instructions: 40000001 cycles: 31873999 heartbeat IPC: 1.04682 cumulative IPC: 1.04654 (Simulation time: 1 hr 26 min 5 sec) 
Heartbeat CPU 0 instructions: 50000002 cycles: 41432597 heartbeat IPC: 1.04618 cumulative IPC: 1.04645 (Simulation time: 1 hr 45 min 8 sec) 
Heartbeat CPU 0 instructions: 60000002 cycles: 51001018 heartbeat IPC: 1.0451 cumulative IPC: 1.04618 (Simulation time: 1 hr 59 min 34 sec) 
Finished CPU 0 instructions: 50000001 cycles: 47792880 cumulative IPC: 1.04618 (Simulation time: 1 hr 59 min 34 sec) 

ChampSim completed all CPUs

Region of Interest Statistics

CPU 0 cumulative IPC: 1.04618 instructions: 50000001 cycles: 47792880
ITLB TOTAL     ACCESS:    6686869  HIT:    6686869  MISS:          0  HIT %:        100  MISS %:          0   MPKI: 0
ITLB LOAD TRANSLATION ACCESS:    6686869  HIT:    6686869  MISS:          0  HIT %:        100  MISS %:          0   MPKI: 0
ITLB PREFETCH  REQUESTED:          0  ISSUED:          0  USEFUL:          0  USELESS:          0
ITLB USEFUL LOAD PREFETCHES:          0 PREFETCH ISSUED TO LOWER LEVEL:          0  ACCURACY: -nan
ITLB TIMELY PREFETCHES:          0 LATE PREFETCHES: 0 DROPPED PREFETCHES: 0
ITLB PREFETCHES SAME FILL-ORIGIN LEVEL: 0 DIFFERENT FILL-ORIGIN LEVEL: 0
ITLB AVERAGE MISS LATENCY: -nan cycles
ITLB RQ	ACCESS:    8354850	FORWARD:          0	MERGED:    1667982	TO_CACHE:    6686868

DTLB TOTAL     ACCESS:   13486831  HIT:   13467077  MISS:      19754  HIT %:    99.8535  MISS %:   0.146469   MPKI: 0.39508
DTLB LOAD TRANSLATION ACCESS:   13486831  HIT:   13467077  MISS:      19754  HIT %:    99.8535  MISS %:   0.146469   MPKI: 0.39508
DTLB PREFETCH  REQUESTED:          0  ISSUED:          0  USEFUL:          0  USELESS:          0
DTLB USEFUL LOAD PREFETCHES:          0 PREFETCH ISSUED TO LOWER LEVEL:          0  ACCURACY: -nan
DTLB TIMELY PREFETCHES:          0 LATE PREFETCHES: 0 DROPPED PREFETCHES: 0
DTLB PREFETCHES SAME FILL-ORIGIN LEVEL: 0 DIFFERENT FILL-ORIGIN LEVEL: 0
DTLB AVERAGE MISS LATENCY: 372.752 cycles
DTLB RQ	ACCESS:   14549395	FORWARD:          0	MERGED:    1060434	TO_CACHE:   13488961

STLB TOTAL     ACCESS:     864410  HIT:     847979  MISS:      16431  HIT %:    98.0992  MISS %:    1.90083   MPKI: 0.32862
STLB LOAD TRANSLATION ACCESS:      19754  HIT:       3323  MISS:      16431  HIT %:    16.8219  MISS %:    83.1781   MPKI: 0.32862
STLB TRANSLATION FROM L1D PREFETCHER ACCESS:     844656  HIT:     844656  MISS:          0  HIT %:        100  MISS %:          0   MPKI: 0
STLB PREFETCH  REQUESTED:          0  ISSUED:          0  USEFUL:          0  USELESS:          0
STLB USEFUL LOAD PREFETCHES:          0 PREFETCH ISSUED TO LOWER LEVEL:          0  ACCURACY: -nan
STLB TIMELY PREFETCHES:          0 LATE PREFETCHES: 0 DROPPED PREFETCHES: 0
STLB PREFETCHES SAME FILL-ORIGIN LEVEL: 0 DIFFERENT FILL-ORIGIN LEVEL: 0
STLB AVERAGE MISS LATENCY: 435.885 cycles
STLB RQ	ACCESS:    4568235	FORWARD:          0	MERGED:    3703825	TO_CACHE:     864410

STLB Hit, L1D data hit: 0
STLB Hit, L2C data hit: 0
STLB Hit, LLC data hit: 0
STLB Hit, LLC data miss: 0
STLB STLB hints to L2: 0
L1D TOTAL     ACCESS:   19057108  HIT:   18336303  MISS:     720805  HIT %:    96.2177  MISS %:    3.78234   MPKI: 14.4161
L1D LOAD      ACCESS:   12833938  HIT:   12772337  MISS:      61601  HIT %:      99.52  MISS %:   0.479985   MPKI: 1.23202
L1D RFO       ACCESS:    1677718  HIT:    1672988  MISS:       4730  HIT %:    99.7181  MISS %:   0.281931   MPKI: 0.0946
L1D PREFETCH  ACCESS:    4545452  HIT:    3890978  MISS:     654474  HIT %:    85.6016  MISS %:    14.3984   MPKI: 13.0895
L1D PREFETCH  REQUESTED:    9844523  ISSUED:    9096962  USEFUL:     599351  USELESS:      55100
L1D USEFUL LOAD PREFETCHES:     599351 PREFETCH ISSUED TO LOWER LEVEL:     665583  ACCURACY: 90.049
L1D TIMELY PREFETCHES:     599351 LATE PREFETCHES: 401 DROPPED PREFETCHES: 0
L1D PREFETCHES SAME FILL-ORIGIN LEVEL: 665583 DIFFERENT FILL-ORIGIN LEVEL: 0
L1D AVERAGE MISS LATENCY: 14891.8 cycles
L1D RQ	ACCESS:   19112601	FORWARD:          0	MERGED:    6263078	TO_CACHE:   12849520
L1D WQ	ACCESS:    1699875	FORWARD:          3	MERGED:          0	TO_CACHE:    1699875
L1D PQ	ACCESS:    4548481	FORWARD:          0	MERGED:          0	TO_CACHE:    4548481

L1D UNIQUE REGIONS ACCESSED: 0
L1D REGIONS CONFLICTS: 0
L1D Cross Page Prefetch Requests: 0
L1D Same Page Prefetch Requests: 5517670
L1D ROI Sum of L1D PQ occupancy: 66710130
L1D PREFETCHES PUSHED FROM L2C: 0
L1I TOTAL     ACCESS:    8354850  HIT:    8354850  MISS:          0  HIT %:        100  MISS %:          0   MPKI: 0
L1I LOAD      ACCESS:    8354850  HIT:    8354850  MISS:          0  HIT %:        100  MISS %:          0   MPKI: 0
L1I PREFETCH  REQUESTED:          0  ISSUED:          0  USEFUL:          0  USELESS:          0
L1I USEFUL LOAD PREFETCHES:          0 PREFETCH ISSUED TO LOWER LEVEL:          0  ACCURACY: -nan
L1I TIMELY PREFETCHES:          0 LATE PREFETCHES: 0 DROPPED PREFETCHES: 0
L1I PREFETCHES SAME FILL-ORIGIN LEVEL: 0 DIFFERENT FILL-ORIGIN LEVEL: 0
L1I AVERAGE MISS LATENCY: -nan cycles
L1I RQ	ACCESS:   13367206	FORWARD:          0	MERGED:    5012356	TO_CACHE:    8354850

BTB TOTAL     ACCESS:    2106371  HIT:    2106360  MISS:         11  HIT %:    99.9995  MISS %: 0.000522225   MPKI: 0.00022
BTB BRANCH_DIRECT_JUMP	ACCESS:         40  HIT:         39  MISS:          1
BTB BRANCH_INDIRECT	ACCESS:          0  HIT:          0  MISS:          0
BTB BRANCH_CONDITIONAL	ACCESS:    2106251  HIT:    2106243  MISS:          8
BTB BRANCH_DIRECT_CALL	ACCESS:         40  HIT:         39  MISS:          1
BTB BRANCH_INDIRECT_CALL	ACCESS:          0  HIT:          0  MISS:          0
BTB BRANCH_RETURN	ACCESS:         40  HIT:         39  MISS:          1
BTB BRANCH_OTHER ACCESS:          0  HIT:          0  MISS:          0

L2C TOTAL     ACCESS:    3364538  HIT:    2599125  MISS:     765413  HIT %:    77.2506  MISS %:    22.7494   MPKI: 15.3083
L2C LOAD      ACCESS:      61197  HIT:      36623  MISS:      24574  HIT %:    59.8444  MISS %:    40.1556   MPKI: 0.49148
L2C DATA LOAD MPKI: 0.49148
L2C INSTRUCTION LOAD MPKI: 0
L2C RFO       ACCESS:       4730  HIT:        394  MISS:       4336  HIT %:    8.32981  MISS %:    91.6702   MPKI: 0.08672
L2C PREFETCH  ACCESS:    3253469  HIT:    2528694  MISS:     724775  HIT %:     77.723  MISS %:     22.277   MPKI: 14.4955
L2C DATA PREFETCH MPKI: 14.4955
L2C INSTRUCTION PREFETCH MPKI: 0
L2C WRITEBACK ACCESS:      20497  HIT:      16997  MISS:       3500  HIT %:    82.9243  MISS %:    17.0757   MPKI: 0.07
L2C LOAD TRANSLATION ACCESS:      24645  HIT:      16417  MISS:       8228  HIT %:    66.6139  MISS %:    33.3861   MPKI: 0.16456
L2C PREFETCH  REQUESTED:    3247206  ISSUED:    3055956  USEFUL:      33242  USELESS:     692227
L2C USEFUL LOAD PREFETCHES:      33242 PREFETCH ISSUED TO LOWER LEVEL:     724824  ACCURACY: 4.58622
L2C TIMELY PREFETCHES:      33242 LATE PREFETCHES: 42 DROPPED PREFETCHES: 0
L2C PREFETCHES SAME FILL-ORIGIN LEVEL: 591805 DIFFERENT FILL-ORIGIN LEVEL: 0
L2C AVERAGE MISS LATENCY: 110.964 cycles
L2C RQ	ACCESS:      90575	FORWARD:          0	MERGED:          0	TO_CACHE:      90572
L2C WQ	ACCESS:      20497	FORWARD:         78	MERGED:          0	TO_CACHE:      20497
L2C PQ	ACCESS:    3710832	FORWARD:          0	MERGED:     446324	TO_CACHE:    3264433

L2C Instructions Evicting Data 0
L2C Translations Evicting Data 8104
L2C Data Evicting Data 745491
L2C Instructions Evicting Instructions 0
L2C Translations Evicting Instructions 0
L2C Data Evicting Instructions 0
L2C Instructions Evicting Translations 0
L2C Translations Evicting Translations 122
L2C Data Evicting Translations 8038
L2C Dense regions hint from L2: 0
PSCL5 TOTAL     ACCESS:      16431  HIT:      16431  MISS:          0  HIT %:        100  MISS %:          0   MPKI: 0
PSCL5 LOAD TRANSLATION ACCESS:      16431  HIT:      16431  MISS:          0  HIT %:        100  MISS %:          0   MPKI: 0
PSCL5 PREFETCH  REQUESTED:          0  ISSUED:          0  USEFUL:          0  USELESS:          0
PSCL5 USEFUL LOAD PREFETCHES:          0 PREFETCH ISSUED TO LOWER LEVEL:          0  ACCURACY: -nan
PSCL5 TIMELY PREFETCHES:          0 LATE PREFETCHES: 0 DROPPED PREFETCHES: 0
PSCL5 PREFETCHES SAME FILL-ORIGIN LEVEL: 0 DIFFERENT FILL-ORIGIN LEVEL: 0

PSCL4 TOTAL     ACCESS:      16431  HIT:      16431  MISS:          0  HIT %:        100  MISS %:          0   MPKI: 0
PSCL4 LOAD TRANSLATION ACCESS:      16431  HIT:      16431  MISS:          0  HIT %:        100  MISS %:          0   MPKI: 0
PSCL4 PREFETCH  REQUESTED:          0  ISSUED:          0  USEFUL:          0  USELESS:          0
PSCL4 USEFUL LOAD PREFETCHES:          0 PREFETCH ISSUED TO LOWER LEVEL:          0  ACCURACY: -nan
PSCL4 TIMELY PREFETCHES:          0 LATE PREFETCHES: 0 DROPPED PREFETCHES: 0
PSCL4 PREFETCHES SAME FILL-ORIGIN LEVEL: 0 DIFFERENT FILL-ORIGIN LEVEL: 0

PSCL3 TOTAL     ACCESS:      16430  HIT:      16425  MISS:          5  HIT %:    99.9696  MISS %:  0.0304321   MPKI: 0.0001
PSCL3 LOAD TRANSLATION ACCESS:      16430  HIT:      16425  MISS:          5  HIT %:    99.9696  MISS %:  0.0304321   MPKI: 0.0001
PSCL3 PREFETCH  REQUESTED:          0  ISSUED:          0  USEFUL:          0  USELESS:          0
PSCL3 USEFUL LOAD PREFETCHES:          0 PREFETCH ISSUED TO LOWER LEVEL:          0  ACCURACY: -nan
PSCL3 TIMELY PREFETCHES:          0 LATE PREFETCHES: 0 DROPPED PREFETCHES: 0
PSCL3 PREFETCHES SAME FILL-ORIGIN LEVEL: 0 DIFFERENT FILL-ORIGIN LEVEL: 0

PSCL2 TOTAL     ACCESS:      16431  HIT:       8154  MISS:       8277  HIT %:    49.6257  MISS %:    50.3743   MPKI: 0.16554
PSCL2 LOAD TRANSLATION ACCESS:      16431  HIT:       8154  MISS:       8277  HIT %:    49.6257  MISS %:    50.3743   MPKI: 0.16554
PSCL2 PREFETCH  REQUESTED:          0  ISSUED:          0  USEFUL:          0  USELESS:          0
PSCL2 USEFUL LOAD PREFETCHES:          0 PREFETCH ISSUED TO LOWER LEVEL:          0  ACCURACY: -nan
PSCL2 TIMELY PREFETCHES:          0 LATE PREFETCHES: 0 DROPPED PREFETCHES: 0
PSCL2 PREFETCHES SAME FILL-ORIGIN LEVEL: 0 DIFFERENT FILL-ORIGIN LEVEL: 0

LLC TOTAL     ACCESS:     768433  HIT:     144250  MISS:     624183  HIT %:     18.772  MISS %:     81.228   MPKI: 12.4837
LLC LOAD      ACCESS:      24532  HIT:       3516  MISS:      21016  HIT %:    14.3323  MISS %:    85.6677   MPKI: 0.42032
LLC RFO       ACCESS:       4336  HIT:        123  MISS:       4213  HIT %:    2.83672  MISS %:    97.1633   MPKI: 0.08426
LLC PREFETCH  ACCESS:     724821  HIT:     131033  MISS:     593788  HIT %:     18.078  MISS %:     81.922   MPKI: 11.8758
LLC WRITEBACK ACCESS:       6516  HIT:       6048  MISS:        468  HIT %:    92.8177  MISS %:    7.18232   MPKI: 0.00936
LLC LOAD TRANSLATION ACCESS:       8228  HIT:       3530  MISS:       4698  HIT %:    42.9023  MISS %:    57.0977   MPKI: 0.09396
LLC PREFETCH  REQUESTED:          0  ISSUED:          0  USEFUL:        106  USELESS:     593817
LLC USEFUL LOAD PREFETCHES:        106 PREFETCH ISSUED TO LOWER LEVEL:     593790  ACCURACY: 0.0178514
LLC TIMELY PREFETCHES:        106 LATE PREFETCHES: 0 DROPPED PREFETCHES: 0
LLC PREFETCHES SAME FILL-ORIGIN LEVEL: 0 DIFFERENT FILL-ORIGIN LEVEL: 0
LLC AVERAGE MISS LATENCY: 96.7102 cycles
LLC RQ	ACCESS:      37096	FORWARD:          0	MERGED:          0	TO_CACHE:      37096
LLC WQ	ACCESS:       6516	FORWARD:          1	MERGED:          0	TO_CACHE:       6516
LLC PQ	ACCESS:     724824	FORWARD:          0	MERGED:          0	TO_CACHE:     724823

LLC Dense regions hint to LLC: 0

RAW hits: 75
Loads Generated: 19112677
Loads sent to L1D: 19112601
Stores Generated: 1699875
Stores sent to L1D: 1699875
Major fault: 0 Minor fault: 20110
Allocated PAGES: 20110

stream: 
stream:times selected: 1264032
stream:pref_filled: 792980
stream:pref_useful: 725713
stream:pref_late: 509
stream:misses: 12
stream:misses_by_poll: 0

CS: 
CS:times selected: 1262444
CS:pref_filled: 1116
CS:pref_useful: 1097
CS:pref_late: 1
CS:misses: 80066
CS:misses_by_poll: 2

CPLX: 
CPLX:times selected: 1554
CPLX:pref_filled: 82
CPLX:pref_useful: 21
CPLX:pref_late: 0
CPLX:misses: 542
CPLX:misses_by_poll: 0

NL_L1: 
NL:times selected: 2
NL:pref_filled: 2
NL:pref_useful: 2
NL:pref_late: 0
NL:misses: 0
NL:misses_by_poll: 0

total selections: 2528032
total_filled: 654474
total_useful: 599351
total_late: 514
total_polluted: 2
total_misses_after_warmup: 77180
conflicts: 17
Degree Incremented Times: 77312
Degree Decremented Times: 0

L1 IP Table Write Accesses: 12849299
L1 IP Table Read Accesses: 12849282
L1 RST Write Accesses: 1054306
L1 RST Read Accesses: 2108612
L1 CSPT Write Accesses: 1054306
L1 CSPT Read Accesses: 1058435
L1 RR Filter Tag Write Accesses: 5296042
L1 RR Filter Tag Read Accesses: 261836025
L1 IP Table Tag Write Accesses: 12849517
L1 IP Table Tag Read Accesses: 12849517
L1 RST Tag Write Accesses: 0
L1 RST Tag Read Accesses: 9498229
L1 RR Filter Write Accesses: 0
L1 RR Filter Read Accesses: 9033709
test: 35078
L2 IP Table Read Accesses: 1151375
L2 IP Table Write Accesses: 1090180
L2 IP Table Tag Read Accesses: 575688
L2 IP Table Tag Write Accesses: 575688

DRAM Statistics
 CHANNEL 0
 RQ ROW_BUFFER_HIT:     526096  ROW_BUFFER_MISS:      97620
 DBUS_CONGESTED:         74
 WQ ROW_BUFFER_HIT:        884  ROW_BUFFER_MISS:       4463  FULL:          0

 AVG_CONGESTED_CYCLE: 5
 All warmup complete: 2
Channel 0 Bank busy for read cycles: 0
Channel 0 Bank busy for write cycles: 0
Channel 0
Rank 0
0banks busy for read cycles: 27740698
0banks busy for write cycles: 3629
1banks busy for read cycles: 11937706
1banks busy for write cycles: 555728
2banks busy for read cycles: 2949272
2banks busy for write cycles: 112407
3banks busy for read cycles: 1175334
3banks busy for write cycles: 41650
4banks busy for read cycles: 685687
4banks busy for write cycles: 23272
5banks busy for read cycles: 481965
5banks busy for write cycles: 8094
6banks busy for read cycles: 518976
6banks busy for write cycles: 3761
7banks busy for read cycles: 1095013
7banks busy for write cycles: 2334
8banks busy for read cycles: 457013
8banks busy for write cycles: 342

CPU 0 Branch Prediction Accuracy: 99.9267% MPKI: 0.03682 Average ROB Occupancy at Mispredict: 64.9343
Branch types
NOT_BRANCH: 47488929 94.9779%
BRANCH_DIRECT_JUMP: 40 8e-05%
BRANCH_INDIRECT: 0 0%
BRANCH_CONDITIONAL: 2510869 5.02174%
BRANCH_DIRECT_CALL: 40 8e-05%
BRANCH_INDIRECT_CALL: 0 0%
BRANCH_RETURN: 40 8e-05%
BRANCH_OTHER: 0 0%

@sumon_overall_L1D    599351       401     55100    654474   9096962   9844523
@Sumon_Early_by_class_L1D    598604       726        21         0
@Sumon_Late_by_class_L1D       397         0         0         0

@Sumon_Early_by_cycle_L1D       553      2106     22025     14056     18190    199620    342321        19         1        50       140       270
@Sumon_Late_by_cycle_L1D       297        83        21         0         0         0         0         0         0         0         0         0
@Sumon_Early_stream_L1D       551      2099     21978     14012     18145    199021    342318        19         1        50       140       270
@Sumon_Early_CS_L1D         2         7        44        39        42       589         3         0         0         0         0         0
@Sumon_Early_CPLX_L1D         0         0         3         5         3        10         0         0         0         0         0         0
@Sumon_Late_stream_L1D       293        83        21         0         0         0         0         0         0         0         0         0
@Sumon_Late_CS_L1D         0         0         0         0         0         0         0         0         0         0         0         0
@Sumon_Late_CPLX_L1D         0         0         0         0         0         0         0         0         0         0         0         0
@sumon_overall_L2C     33242        42    692227    724775   3055956   3247206
@Sumon_Early_by_class_L2C     33192        50         0         0
@Sumon_Late_by_class_L2C        37         0         0         0

@Sumon_Early_by_cycle_L2C         4        83      3311      1150      2325     13593     12106       104         0        11        28       527
@Sumon_Late_by_cycle_L2C        24        18         0         0         0         0         0         0         0         0         0         0
@Sumon_Early_stream_L2C         4        83      3311      1149      2324     13545     12106       104         0        11        28       527
@Sumon_Early_CS_L2C         0         0         0         1         1        48         0         0         0         0         0         0
@Sumon_Early_CPLX_L2C         0         0         0         0         0         0         0         0         0         0         0         0
@Sumon_Late_stream_L2C        19        18         0         0         0         0         0         0         0         0         0         0
@Sumon_Late_CS_L2C         0         0         0         0         0         0         0         0         0         0         0         0
@Sumon_Late_CPLX_L2C         0         0         0         0         0         0         0         0         0         0         0         0
DRAM PAGES: 1048576
Allocated PAGES: 20110
