
*** ChampSim Multicore Out-of-Order Simulator ***

Warmup Instructions: 10000000
Simulation Instructions: 50000000
Number of CPUs: 1
LLC sets: 2048
LLC ways: 16
Off-chip DRAM Size: 4096 MB Channels: 1 Width: 64-bit Data Rate: 200 MT/s
CPU 0 runs traces/clientserver/client_006.champsimtrace.xz
.xz
CPU 0 Bimodal branch predictor
BTB has LRU replacement policy
ITLB has LRU replacement policy
DTLB has LRU replacement policy
STLB has LRU replacement policy
L1I has LRU replacement policy
IP Table Entries: 256
L1D has LRU replacement policy
IP_Table L2 entries: 256
L2C has LRU replacement policy
LLC has LRU replacement policy
Heartbeat CPU 0 instructions: 10000001 cycles: 3364452 heartbeat IPC: 2.97225 cumulative IPC: 2.97225 (Simulation time: 0 hr 12 min 16 sec) 

Warmup complete CPU 0 instructions: 10000001 cycles: 3364452 (Simulation time: 0 hr 12 min 16 sec) 

Heartbeat CPU 0 instructions: 20000000 cycles: 22941566 heartbeat IPC: 0.5108 cumulative IPC: 0.5108 (Simulation time: 0 hr 22 min 21 sec) 
Heartbeat CPU 0 instructions: 30000003 cycles: 43989575 heartbeat IPC: 0.475104 cumulative IPC: 0.492306 (Simulation time: 0 hr 30 min 51 sec) 
Heartbeat CPU 0 instructions: 40000000 cycles: 63325183 heartbeat IPC: 0.51718 cumulative IPC: 0.500327 (Simulation time: 0 hr 39 min 42 sec) 
Heartbeat CPU 0 instructions: 50000003 cycles: 90593517 heartbeat IPC: 0.366726 cumulative IPC: 0.458563 (Simulation time: 0 hr 52 min 8 sec) 
Heartbeat CPU 0 instructions: 60000002 cycles: 112395021 heartbeat IPC: 0.458684 cumulative IPC: 0.458587 (Simulation time: 0 hr 54 min 55 sec) 
Finished CPU 0 instructions: 50000001 cycles: 109030569 cumulative IPC: 0.458587 (Simulation time: 0 hr 54 min 55 sec) 

ChampSim completed all CPUs

Region of Interest Statistics

CPU 0 cumulative IPC: 0.458587 instructions: 50000001 cycles: 109030569
ITLB TOTAL     ACCESS:    7926536  HIT:    7786795  MISS:     139741  HIT %:     98.237  MISS %:    1.76295   MPKI: 2.79482
ITLB LOAD TRANSLATION ACCESS:    7926536  HIT:    7786795  MISS:     139741  HIT %:     98.237  MISS %:    1.76295   MPKI: 2.79482
ITLB PREFETCH  REQUESTED:          0  ISSUED:          0  USEFUL:          0  USELESS:          0
ITLB USEFUL LOAD PREFETCHES:          0 PREFETCH ISSUED TO LOWER LEVEL:          0  ACCURACY: -nan
ITLB TIMELY PREFETCHES:          0 LATE PREFETCHES: 0 DROPPED PREFETCHES: 0
ITLB PREFETCHES SAME FILL-ORIGIN LEVEL: 0 DIFFERENT FILL-ORIGIN LEVEL: 0
ITLB AVERAGE MISS LATENCY: 14.1034 cycles
ITLB RQ	ACCESS:    9534789	FORWARD:          0	MERGED:    1591898	TO_CACHE:    7942891

DTLB TOTAL     ACCESS:   11062432  HIT:   10709237  MISS:     353195  HIT %:    96.8073  MISS %:    3.19274   MPKI: 7.0639
DTLB LOAD TRANSLATION ACCESS:   11062432  HIT:   10709237  MISS:     353195  HIT %:    96.8073  MISS %:    3.19274   MPKI: 7.0639
DTLB PREFETCH  REQUESTED:          0  ISSUED:          0  USEFUL:          0  USELESS:          0
DTLB USEFUL LOAD PREFETCHES:          0 PREFETCH ISSUED TO LOWER LEVEL:          0  ACCURACY: -nan
DTLB TIMELY PREFETCHES:          0 LATE PREFETCHES: 0 DROPPED PREFETCHES: 0
DTLB PREFETCHES SAME FILL-ORIGIN LEVEL: 0 DIFFERENT FILL-ORIGIN LEVEL: 0
DTLB AVERAGE MISS LATENCY: 24.8048 cycles
DTLB RQ	ACCESS:   13115894	FORWARD:          0	MERGED:    2038223	TO_CACHE:   11077671

STLB TOTAL     ACCESS:    1093080  HIT:    1068449  MISS:      24631  HIT %:    97.7466  MISS %:    2.25336   MPKI: 0.49262
STLB LOAD TRANSLATION ACCESS:     492935  HIT:     468304  MISS:      24631  HIT %:    95.0032  MISS %:     4.9968   MPKI: 0.49262
STLB TRANSLATION FROM L1D PREFETCHER ACCESS:     600145  HIT:     600145  MISS:          0  HIT %:        100  MISS %:          0   MPKI: 0
STLB PREFETCH  REQUESTED:          0  ISSUED:          0  USEFUL:          0  USELESS:          0
STLB USEFUL LOAD PREFETCHES:          0 PREFETCH ISSUED TO LOWER LEVEL:          0  ACCURACY: -nan
STLB TIMELY PREFETCHES:          0 LATE PREFETCHES: 0 DROPPED PREFETCHES: 0
STLB PREFETCHES SAME FILL-ORIGIN LEVEL: 0 DIFFERENT FILL-ORIGIN LEVEL: 0
STLB AVERAGE MISS LATENCY: 254.893 cycles
STLB RQ	ACCESS:    1299920	FORWARD:          0	MERGED:     206840	TO_CACHE:    1093080

STLB Hit, L1D data hit: 0
STLB Hit, L2C data hit: 0
STLB Hit, LLC data hit: 0
STLB Hit, LLC data miss: 0
STLB STLB hints to L2: 0
L1D TOTAL     ACCESS:   13519968  HIT:   12577477  MISS:     942491  HIT %:    93.0289  MISS %:     6.9711   MPKI: 18.8498
L1D LOAD      ACCESS:    8485557  HIT:    8059401  MISS:     426156  HIT %:    94.9779  MISS %:    5.02213   MPKI: 8.52312
L1D RFO       ACCESS:    4264634  HIT:    4190261  MISS:      74373  HIT %:    98.2561  MISS %:    1.74395   MPKI: 1.48746
L1D PREFETCH  ACCESS:     769777  HIT:     327815  MISS:     441962  HIT %:    42.5857  MISS %:    57.4143   MPKI: 8.83924
L1D PREFETCH  REQUESTED:    1614172  ISSUED:    1614079  USEFUL:     145174  USELESS:     296845
L1D USEFUL LOAD PREFETCHES:     145174 PREFETCH ISSUED TO LOWER LEVEL:     445537  ACCURACY: 32.5841
L1D TIMELY PREFETCHES:     145174 LATE PREFETCHES: 161768 DROPPED PREFETCHES: 0
L1D PREFETCHES SAME FILL-ORIGIN LEVEL: 445537 DIFFERENT FILL-ORIGIN LEVEL: 0
L1D AVERAGE MISS LATENCY: 282823 cycles
L1D RQ	ACCESS:   12089624	FORWARD:          0	MERGED:    3309978	TO_CACHE:    8696230
L1D WQ	ACCESS:    4484002	FORWARD:      83525	MERGED:      64338	TO_CACHE:    4419664
L1D PQ	ACCESS:     807094	FORWARD:          0	MERGED:          0	TO_CACHE:     806985

L1D UNIQUE REGIONS ACCESSED: 0
L1D REGIONS CONFLICTS: 0
L1D Cross Page Prefetch Requests: 0
L1D Same Page Prefetch Requests: 1139731
L1D ROI Sum of L1D PQ occupancy: 16523491
L1D PREFETCHES PUSHED FROM L2C: 0
L1I TOTAL     ACCESS:    9272331  HIT:    8540029  MISS:     732302  HIT %:    92.1023  MISS %:    7.89771   MPKI: 14.646
L1I LOAD      ACCESS:    9272331  HIT:    8540029  MISS:     732302  HIT %:    92.1023  MISS %:    7.89771   MPKI: 14.646
L1I PREFETCH  REQUESTED:          0  ISSUED:          0  USEFUL:          0  USELESS:          0
L1I USEFUL LOAD PREFETCHES:          0 PREFETCH ISSUED TO LOWER LEVEL:          0  ACCURACY: -nan
L1I TIMELY PREFETCHES:          0 LATE PREFETCHES: 0 DROPPED PREFETCHES: 0
L1I PREFETCHES SAME FILL-ORIGIN LEVEL: 0 DIFFERENT FILL-ORIGIN LEVEL: 0
L1I AVERAGE MISS LATENCY: 27.9022 cycles
L1I RQ	ACCESS:   13575013	FORWARD:          0	MERGED:    4040224	TO_CACHE:    9534789

BTB TOTAL     ACCESS:    5171861  HIT:    4886345  MISS:     285516  HIT %:    94.4794  MISS %:    5.52057   MPKI: 5.71032
BTB BRANCH_DIRECT_JUMP	ACCESS:     468887  HIT:     465580  MISS:       3307
BTB BRANCH_INDIRECT	ACCESS:      51898  HIT:      32201  MISS:      19697
BTB BRANCH_CONDITIONAL	ACCESS:    3126383  HIT:    3119589  MISS:       6794
BTB BRANCH_DIRECT_CALL	ACCESS:     511782  HIT:     508568  MISS:       3214
BTB BRANCH_INDIRECT_CALL	ACCESS:     249632  HIT:     190154  MISS:      59478
BTB BRANCH_RETURN	ACCESS:     763279  HIT:     570253  MISS:     193026
BTB BRANCH_OTHER ACCESS:          0  HIT:          0  MISS:          0

L2C TOTAL     ACCESS:    2133940  HIT:    1618047  MISS:     515893  HIT %:    75.8244  MISS %:    24.1756   MPKI: 10.3179
L2C LOAD      ACCESS:    1158451  HIT:     948171  MISS:     210280  HIT %:    81.8482  MISS %:    18.1518   MPKI: 4.2056
L2C DATA LOAD MPKI: 3.24782
L2C INSTRUCTION LOAD MPKI: 0.95778
L2C RFO       ACCESS:      70856  HIT:      20624  MISS:      50232  HIT %:    29.1069  MISS %:    70.8931   MPKI: 1.00464
L2C PREFETCH  ACCESS:     647673  HIT:     406528  MISS:     241145  HIT %:    62.7675  MISS %:    37.2325   MPKI: 4.8229
L2C DATA PREFETCH MPKI: 4.8229
L2C INSTRUCTION PREFETCH MPKI: 0
L2C WRITEBACK ACCESS:     229626  HIT:     228735  MISS:        891  HIT %:     99.612  MISS %:   0.388022   MPKI: 0.01782
L2C LOAD TRANSLATION ACCESS:      27334  HIT:      13989  MISS:      13345  HIT %:     51.178  MISS %:     48.822   MPKI: 0.2669
L2C PREFETCH  REQUESTED:     283627  ISSUED:     282451  USEFUL:      20647  USELESS:     219813
L2C USEFUL LOAD PREFETCHES:      20647 PREFETCH ISSUED TO LOWER LEVEL:     247727  ACCURACY: 8.33458
L2C TIMELY PREFETCHES:      20647 LATE PREFETCHES: 6582 DROPPED PREFETCHES: 0
L2C PREFETCHES SAME FILL-ORIGIN LEVEL: 66099 DIFFERENT FILL-ORIGIN LEVEL: 0
L2C AVERAGE MISS LATENCY: 465.097 cycles
L2C RQ	ACCESS:    1256651	FORWARD:          0	MERGED:          0	TO_CACHE:    1256641
L2C WQ	ACCESS:     229626	FORWARD:         22	MERGED:          0	TO_CACHE:     229626
L2C PQ	ACCESS:     727927	FORWARD:          0	MERGED:      50107	TO_CACHE:     677808

L2C Instructions Evicting Data 43835
L2C Translations Evicting Data 12123
L2C Data Evicting Data 397916
L2C Instructions Evicting Instructions 3124
L2C Translations Evicting Instructions 880
L2C Data Evicting Instructions 43898
L2C Instructions Evicting Translations 930
L2C Translations Evicting Translations 342
L2C Data Evicting Translations 11954
L2C Dense regions hint from L2: 0
PSCL5 TOTAL     ACCESS:      24631  HIT:      24631  MISS:          0  HIT %:        100  MISS %:          0   MPKI: 0
PSCL5 LOAD TRANSLATION ACCESS:      24631  HIT:      24631  MISS:          0  HIT %:        100  MISS %:          0   MPKI: 0
PSCL5 PREFETCH  REQUESTED:          0  ISSUED:          0  USEFUL:          0  USELESS:          0
PSCL5 USEFUL LOAD PREFETCHES:          0 PREFETCH ISSUED TO LOWER LEVEL:          0  ACCURACY: -nan
PSCL5 TIMELY PREFETCHES:          0 LATE PREFETCHES: 0 DROPPED PREFETCHES: 0
PSCL5 PREFETCHES SAME FILL-ORIGIN LEVEL: 0 DIFFERENT FILL-ORIGIN LEVEL: 0

PSCL4 TOTAL     ACCESS:      22467  HIT:      22442  MISS:         25  HIT %:    99.8887  MISS %:   0.111274   MPKI: 0.0005
PSCL4 LOAD TRANSLATION ACCESS:      22467  HIT:      22442  MISS:         25  HIT %:    99.8887  MISS %:   0.111274   MPKI: 0.0005
PSCL4 PREFETCH  REQUESTED:          0  ISSUED:          0  USEFUL:          0  USELESS:          0
PSCL4 USEFUL LOAD PREFETCHES:          0 PREFETCH ISSUED TO LOWER LEVEL:          0  ACCURACY: -nan
PSCL4 TIMELY PREFETCHES:          0 LATE PREFETCHES: 0 DROPPED PREFETCHES: 0
PSCL4 PREFETCHES SAME FILL-ORIGIN LEVEL: 0 DIFFERENT FILL-ORIGIN LEVEL: 0

PSCL3 TOTAL     ACCESS:      24571  HIT:      24494  MISS:         77  HIT %:    99.6866  MISS %:   0.313378   MPKI: 0.00154
PSCL3 LOAD TRANSLATION ACCESS:      24571  HIT:      24494  MISS:         77  HIT %:    99.6866  MISS %:   0.313378   MPKI: 0.00154
PSCL3 PREFETCH  REQUESTED:          0  ISSUED:          0  USEFUL:          0  USELESS:          0
PSCL3 USEFUL LOAD PREFETCHES:          0 PREFETCH ISSUED TO LOWER LEVEL:          0  ACCURACY: -nan
PSCL3 TIMELY PREFETCHES:          0 LATE PREFETCHES: 0 DROPPED PREFETCHES: 0
PSCL3 PREFETCHES SAME FILL-ORIGIN LEVEL: 0 DIFFERENT FILL-ORIGIN LEVEL: 0

PSCL2 TOTAL     ACCESS:      24631  HIT:      21900  MISS:       2731  HIT %:    88.9123  MISS %:    11.0877   MPKI: 0.05462
PSCL2 LOAD TRANSLATION ACCESS:      24631  HIT:      21900  MISS:       2731  HIT %:    88.9123  MISS %:    11.0877   MPKI: 0.05462
PSCL2 PREFETCH  REQUESTED:          0  ISSUED:          0  USEFUL:          0  USELESS:          0
PSCL2 USEFUL LOAD PREFETCHES:          0 PREFETCH ISSUED TO LOWER LEVEL:          0  ACCURACY: -nan
PSCL2 TIMELY PREFETCHES:          0 LATE PREFETCHES: 0 DROPPED PREFETCHES: 0
PSCL2 PREFETCHES SAME FILL-ORIGIN LEVEL: 0 DIFFERENT FILL-ORIGIN LEVEL: 0

LLC TOTAL     ACCESS:     657329  HIT:     383806  MISS:     273523  HIT %:    58.3887  MISS %:    41.6113   MPKI: 5.47046
LLC LOAD      ACCESS:     203813  HIT:      75067  MISS:     128746  HIT %:    36.8313  MISS %:    63.1687   MPKI: 2.57492
LLC RFO       ACCESS:      50117  HIT:      11155  MISS:      38962  HIT %:    22.2579  MISS %:    77.7421   MPKI: 0.77924
LLC PREFETCH  ACCESS:     247727  HIT:     150142  MISS:      97585  HIT %:    60.6078  MISS %:    39.3922   MPKI: 1.9517
LLC WRITEBACK ACCESS:     142327  HIT:     141607  MISS:        720  HIT %:    99.4941  MISS %:   0.505877   MPKI: 0.0144
LLC LOAD TRANSLATION ACCESS:      13345  HIT:       5835  MISS:       7510  HIT %:    43.7242  MISS %:    56.2758   MPKI: 0.1502
LLC PREFETCH  REQUESTED:          0  ISSUED:          0  USEFUL:       3519  USELESS:      97622
LLC USEFUL LOAD PREFETCHES:       3519 PREFETCH ISSUED TO LOWER LEVEL:      97585  ACCURACY: 3.60609
LLC TIMELY PREFETCHES:       3519 LATE PREFETCHES: 0 DROPPED PREFETCHES: 0
LLC PREFETCHES SAME FILL-ORIGIN LEVEL: 0 DIFFERENT FILL-ORIGIN LEVEL: 0
LLC AVERAGE MISS LATENCY: 829.063 cycles
LLC RQ	ACCESS:     267275	FORWARD:          0	MERGED:          0	TO_CACHE:     267275
LLC WQ	ACCESS:     142327	FORWARD:          0	MERGED:          0	TO_CACHE:     142327
LLC PQ	ACCESS:     247727	FORWARD:          0	MERGED:          0	TO_CACHE:     247727

LLC Dense regions hint to LLC: 0

RAW hits: 862338
Loads Generated: 12951965
Loads sent to L1D: 12089624
Stores Generated: 4483996
Stores sent to L1D: 4484002
Major fault: 0 Minor fault: 9084
Allocated PAGES: 9084

stream: 
stream:times selected: 1256672
stream:pref_filled: 234580
stream:pref_useful: 54813
stream:pref_late: 10767
stream:misses: 26719
stream:misses_by_poll: 0

CS: 
CS:times selected: 396231
CS:pref_filled: 291232
CS:pref_useful: 141802
CS:pref_late: 132503
CS:misses: 165152
CS:misses_by_poll: 62

CPLX: 
CPLX:times selected: 856250
CPLX:pref_filled: 57711
CPLX:pref_useful: 13264
CPLX:pref_late: 3634
CPLX:misses: 113446
CPLX:misses_by_poll: 46

NL_L1: 
NL:times selected: 6478
NL:pref_filled: 1129
NL:pref_useful: 774
NL:pref_late: 93
NL:misses: 1103
NL:misses_by_poll: 0

total selections: 2515631
total_filled: 441962
total_useful: 145174
total_late: 147204
total_polluted: 108
total_misses_after_warmup: 636832
conflicts: 1866696
Degree Incremented Times: 68279
Degree Decremented Times: 152466

L1 IP Table Write Accesses: 6182482
L1 IP Table Read Accesses: 4315786
L1 RST Write Accesses: 938394
L1 RST Read Accesses: 1876788
L1 CSPT Write Accesses: 938394
L1 CSPT Read Accesses: 1565709
L1 RR Filter Tag Write Accesses: 807187
L1 RR Filter Tag Read Accesses: 59655100
L1 IP Table Tag Write Accesses: 8696233
L1 IP Table Tag Read Accesses: 8696233
L1 RST Tag Write Accesses: 0
L1 RST Tag Read Accesses: 8385246
L1 RR Filter Write Accesses: 0
L1 RR Filter Read Accesses: 2041094
test: 345780
L2 IP Table Read Accesses: 1549174
L2 IP Table Write Accesses: 1341833
L2 IP Table Tag Read Accesses: 846257
L2 IP Table Tag Write Accesses: 846257

DRAM Statistics
 CHANNEL 0
 RQ ROW_BUFFER_HIT:      70096  ROW_BUFFER_MISS:     202685
 DBUS_CONGESTED:     359580
 WQ ROW_BUFFER_HIT:      43521  ROW_BUFFER_MISS:      80259  FULL:          0

 AVG_CONGESTED_CYCLE: 133
 All warmup complete: 2
Channel 0 Bank busy for read cycles: 0
Channel 0 Bank busy for write cycles: 0
Channel 0
Rank 0
0banks busy for read cycles: 42955922
0banks busy for write cycles: 21844
1banks busy for read cycles: 15820238
1banks busy for write cycles: 4547722
2banks busy for read cycles: 9321798
2banks busy for write cycles: 2403615
3banks busy for read cycles: 5114083
3banks busy for write cycles: 1721865
4banks busy for read cycles: 2513080
4banks busy for write cycles: 1405670
5banks busy for read cycles: 1401967
5banks busy for write cycles: 1302271
6banks busy for read cycles: 963100
6banks busy for write cycles: 1363265
7banks busy for read cycles: 952269
7banks busy for write cycles: 2288284
8banks busy for read cycles: 5683913
8banks busy for write cycles: 9249664

CPU 0 Branch Prediction Accuracy: 95.4558% MPKI: 7.81132 Average ROB Occupancy at Mispredict: 49.9448
Branch types
NOT_BRANCH: 41404794 82.8096%
BRANCH_DIRECT_JUMP: 468887 0.937774%
BRANCH_INDIRECT: 51898 0.103796%
BRANCH_CONDITIONAL: 6549378 13.0988%
BRANCH_DIRECT_CALL: 511782 1.02356%
BRANCH_INDIRECT_CALL: 249632 0.499264%
BRANCH_RETURN: 763279 1.52656%
BRANCH_OTHER: 0 0%

@sumon_overall_L1D    145174    161768    296845    441962   1614079   1614172
@Sumon_Early_by_class_L1D     41697     90509     10494        93
@Sumon_Late_by_class_L1D     10608    129889      3553        93

@Sumon_Early_by_cycle_L1D     67216     34037      5074      7481      3173     10303      7717      3683      2410      2490       957       633
@Sumon_Late_by_cycle_L1D    131393      3107      1459       787       582      3033      3188       785         6         0         0         0
@Sumon_Early_stream_L1D     19874      4943      2269      1422      1155      4286      2459      1812      1247      1240       530       460
@Sumon_Early_CS_L1D     44121     27432      1778      5468      1553      3904      3904      1162       561       499        89        38
@Sumon_Early_CPLX_L1D      2614      1453       903       507       351      1209      1223       608       518       680       308       120
@Sumon_Late_stream_L1D      6808      2142       738       243       128       208       265        76         0         0         0         0
@Sumon_Late_CS_L1D    121328       680       625       513       433      2752      2859       693         6         0         0         0
@Sumon_Late_CPLX_L1D      3072       212        77        21        18        73        64        16         0         0         0         0
@sumon_overall_L2C     20647      6582    219813    241145    282451    283627
@Sumon_Early_by_class_L2C      1718      1009      1011         0
@Sumon_Late_by_class_L2C         0      1839         0         0

@Sumon_Early_by_cycle_L2C      2357      1265      1086       787       729      3230      2253      1529       570      1028      1037      4776
@Sumon_Late_by_cycle_L2C      2098      1633      1051       244        88       515       738       215         0         0         0         0
@Sumon_Early_stream_L2C         0         0         0         0         0         0         0         0         4        74       238      1402
@Sumon_Early_CS_L2C        31        30        19        30        17       137        23        10        18        46       105       543
@Sumon_Early_CPLX_L2C         0         0         0         0         0         0         0         0         3        32       134       842
@Sumon_Late_stream_L2C         0         0         0         0         0         0         0         0         0         0         0         0
@Sumon_Late_CS_L2C       149        24       118        44        61       494       734       215         0         0         0         0
@Sumon_Late_CPLX_L2C         0         0         0         0         0         0         0         0         0         0         0         0
DRAM PAGES: 1048576
Allocated PAGES: 9084
