
*** ChampSim Multicore Out-of-Order Simulator ***

Warmup Instructions: 10000000
Simulation Instructions: 50000000
Number of CPUs: 1
LLC sets: 2048
LLC ways: 16
Off-chip DRAM Size: 4096 MB Channels: 1 Width: 64-bit Data Rate: 200 MT/s
CPU 0 runs traces/clientserver/server_004.champsimtrace.xz
.xz
CPU 0 Bimodal branch predictor
BTB has LRU replacement policy
ITLB has LRU replacement policy
DTLB has LRU replacement policy
STLB has LRU replacement policy
L1I has LRU replacement policy
IP Table Entries: 256
L1D has LRU replacement policy
IP_Table L2 entries: 256
L2C has LRU replacement policy
LLC has LRU replacement policy
Heartbeat CPU 0 instructions: 10000002 cycles: 2786444 heartbeat IPC: 3.5888 cumulative IPC: 3.5888 (Simulation time: 0 hr 8 min 28 sec) 

Warmup complete CPU 0 instructions: 10000002 cycles: 2786444 (Simulation time: 0 hr 8 min 28 sec) 

Heartbeat CPU 0 instructions: 20000002 cycles: 26452484 heartbeat IPC: 0.422546 cumulative IPC: 0.422546 (Simulation time: 0 hr 17 min 15 sec) 
Heartbeat CPU 0 instructions: 30000000 cycles: 60221087 heartbeat IPC: 0.296133 cumulative IPC: 0.348222 (Simulation time: 0 hr 30 min 34 sec) 
Heartbeat CPU 0 instructions: 40000000 cycles: 85922709 heartbeat IPC: 0.38908 cumulative IPC: 0.360853 (Simulation time: 0 hr 40 min 32 sec) 
Heartbeat CPU 0 instructions: 50000000 cycles: 108189697 heartbeat IPC: 0.449095 cumulative IPC: 0.379495 (Simulation time: 0 hr 49 min 10 sec) 
Heartbeat CPU 0 instructions: 60000000 cycles: 132202292 heartbeat IPC: 0.416448 cumulative IPC: 0.386351 (Simulation time: 0 hr 54 min 14 sec) 
Finished CPU 0 instructions: 50000002 cycles: 129415864 cumulative IPC: 0.386351 (Simulation time: 0 hr 54 min 14 sec) 

ChampSim completed all CPUs

Region of Interest Statistics

CPU 0 cumulative IPC: 0.386351 instructions: 50000002 cycles: 129415864
ITLB TOTAL     ACCESS:    9094682  HIT:    8933006  MISS:     161676  HIT %:    98.2223  MISS %:     1.7777   MPKI: 3.23352
ITLB LOAD TRANSLATION ACCESS:    9094682  HIT:    8933006  MISS:     161676  HIT %:    98.2223  MISS %:     1.7777   MPKI: 3.23352
ITLB PREFETCH  REQUESTED:          0  ISSUED:          0  USEFUL:          0  USELESS:          0
ITLB USEFUL LOAD PREFETCHES:          0 PREFETCH ISSUED TO LOWER LEVEL:          0  ACCURACY: -nan
ITLB TIMELY PREFETCHES:          0 LATE PREFETCHES: 0 DROPPED PREFETCHES: 0
ITLB PREFETCHES SAME FILL-ORIGIN LEVEL: 0 DIFFERENT FILL-ORIGIN LEVEL: 0
ITLB AVERAGE MISS LATENCY: 19.3012 cycles
ITLB RQ	ACCESS:   10624375	FORWARD:          0	MERGED:    1489876	TO_CACHE:    9134499

DTLB TOTAL     ACCESS:   11133793  HIT:    9593529  MISS:    1540264  HIT %:    86.1659  MISS %:    13.8341   MPKI: 30.8053
DTLB LOAD TRANSLATION ACCESS:   11133793  HIT:    9593529  MISS:    1540264  HIT %:    86.1659  MISS %:    13.8341   MPKI: 30.8053
DTLB PREFETCH  REQUESTED:          0  ISSUED:          0  USEFUL:          0  USELESS:          0
DTLB USEFUL LOAD PREFETCHES:          0 PREFETCH ISSUED TO LOWER LEVEL:          0  ACCURACY: -nan
DTLB TIMELY PREFETCHES:          0 LATE PREFETCHES: 0 DROPPED PREFETCHES: 0
DTLB PREFETCHES SAME FILL-ORIGIN LEVEL: 0 DIFFERENT FILL-ORIGIN LEVEL: 0
DTLB AVERAGE MISS LATENCY: 11.9501 cycles
DTLB RQ	ACCESS:   14193259	FORWARD:          0	MERGED:    3032612	TO_CACHE:   11160647

STLB TOTAL     ACCESS:    3212077  HIT:    3108362  MISS:     103715  HIT %:    96.7711  MISS %:    3.22891   MPKI: 2.0743
STLB LOAD TRANSLATION ACCESS:    1701940  HIT:    1598225  MISS:     103715  HIT %:    93.9061  MISS %:    6.09393   MPKI: 2.0743
STLB TRANSLATION FROM L1D PREFETCHER ACCESS:    1510137  HIT:    1510137  MISS:          0  HIT %:        100  MISS %:          0   MPKI: 0
STLB PREFETCH  REQUESTED:          0  ISSUED:          0  USEFUL:          0  USELESS:          0
STLB USEFUL LOAD PREFETCHES:          0 PREFETCH ISSUED TO LOWER LEVEL:          0  ACCURACY: -nan
STLB TIMELY PREFETCHES:          0 LATE PREFETCHES: 0 DROPPED PREFETCHES: 0
STLB PREFETCHES SAME FILL-ORIGIN LEVEL: 0 DIFFERENT FILL-ORIGIN LEVEL: 0
STLB AVERAGE MISS LATENCY: 59.7067 cycles
STLB RQ	ACCESS:    4781412	FORWARD:          0	MERGED:    1569335	TO_CACHE:    3212077

STLB Hit, L1D data hit: 0
STLB Hit, L2C data hit: 0
STLB Hit, LLC data hit: 0
STLB Hit, LLC data miss: 0
STLB STLB hints to L2: 0
L1D TOTAL     ACCESS:   17041915  HIT:   13380495  MISS:    3661420  HIT %:    78.5152  MISS %:    21.4848   MPKI: 73.2284
L1D LOAD      ACCESS:    9292677  HIT:    7439124  MISS:    1853553  HIT %:    80.0536  MISS %:    19.9464   MPKI: 37.0711
L1D RFO       ACCESS:    4689887  HIT:    4578301  MISS:     111586  HIT %:    97.6207  MISS %:    2.37929   MPKI: 2.23172
L1D PREFETCH  ACCESS:    3059351  HIT:    1363070  MISS:    1696281  HIT %:    44.5542  MISS %:    55.4458   MPKI: 33.9256
L1D PREFETCH  REQUESTED:    6159587  ISSUED:    6159172  USEFUL:     158769  USELESS:    1537623
L1D USEFUL LOAD PREFETCHES:     158769 PREFETCH ISSUED TO LOWER LEVEL:    1696546  ACCURACY: 9.35837
L1D TIMELY PREFETCHES:     158769 LATE PREFETCHES: 48371 DROPPED PREFETCHES: 0
L1D PREFETCHES SAME FILL-ORIGIN LEVEL: 1696546 DIFFERENT FILL-ORIGIN LEVEL: 0
L1D AVERAGE MISS LATENCY: 4355.74 cycles
L1D RQ	ACCESS:   12614762	FORWARD:          0	MERGED:    3172832	TO_CACHE:    9367029
L1D WQ	ACCESS:    4936225	FORWARD:      75129	MERGED:     109995	TO_CACHE:    4826230
L1D PQ	ACCESS:    3079700	FORWARD:          0	MERGED:          0	TO_CACHE:    3079472

L1D UNIQUE REGIONS ACCESSED: 0
L1D REGIONS CONFLICTS: 0
L1D Cross Page Prefetch Requests: 0
L1D Same Page Prefetch Requests: 3131279
L1D ROI Sum of L1D PQ occupancy: 44010807
L1D PREFETCHES PUSHED FROM L2C: 0
L1I TOTAL     ACCESS:   10327630  HIT:    9300325  MISS:    1027305  HIT %:    90.0528  MISS %:    9.94715   MPKI: 20.5461
L1I LOAD      ACCESS:   10327630  HIT:    9300325  MISS:    1027305  HIT %:    90.0528  MISS %:    9.94715   MPKI: 20.5461
L1I PREFETCH  REQUESTED:          0  ISSUED:          0  USEFUL:          0  USELESS:          0
L1I USEFUL LOAD PREFETCHES:          0 PREFETCH ISSUED TO LOWER LEVEL:          0  ACCURACY: -nan
L1I TIMELY PREFETCHES:          0 LATE PREFETCHES: 0 DROPPED PREFETCHES: 0
L1I PREFETCHES SAME FILL-ORIGIN LEVEL: 0 DIFFERENT FILL-ORIGIN LEVEL: 0
L1I AVERAGE MISS LATENCY: 36.8607 cycles
L1I RQ	ACCESS:   15414847	FORWARD:          0	MERGED:    4790472	TO_CACHE:   10624375

BTB TOTAL     ACCESS:    6676538  HIT:    5902605  MISS:     773933  HIT %:    88.4082  MISS %:    11.5918   MPKI: 15.4787
BTB BRANCH_DIRECT_JUMP	ACCESS:     544515  HIT:     488010  MISS:      56505
BTB BRANCH_INDIRECT	ACCESS:     135142  HIT:     100243  MISS:      34899
BTB BRANCH_CONDITIONAL	ACCESS:    4036815  HIT:    3832685  MISS:     204130
BTB BRANCH_DIRECT_CALL	ACCESS:     780947  HIT:     677878  MISS:     103069
BTB BRANCH_INDIRECT_CALL	ACCESS:     187570  HIT:     160642  MISS:      26928
BTB BRANCH_RETURN	ACCESS:     991549  HIT:     643147  MISS:     348402
BTB BRANCH_OTHER ACCESS:          0  HIT:          0  MISS:          0

L2C TOTAL     ACCESS:    5371341  HIT:    4295541  MISS:    1075800  HIT %:    79.9715  MISS %:    20.0285   MPKI: 21.516
L2C LOAD      ACCESS:    2880839  HIT:    2150634  MISS:     730205  HIT %:     74.653  MISS %:     25.347   MPKI: 14.6041
L2C DATA LOAD MPKI: 4.31296
L2C INSTRUCTION LOAD MPKI: 10.2911
L2C RFO       ACCESS:     111319  HIT:      61624  MISS:      49695  HIT %:     55.358  MISS %:     44.642   MPKI: 0.9939
L2C PREFETCH  ACCESS:    2016042  HIT:    1782677  MISS:     233365  HIT %:    88.4246  MISS %:    11.5754   MPKI: 4.6673
L2C DATA PREFETCH MPKI: 4.6673
L2C INSTRUCTION PREFETCH MPKI: 0
L2C WRITEBACK ACCESS:     231459  HIT:     228761  MISS:       2698  HIT %:    98.8344  MISS %:    1.16565   MPKI: 0.05396
L2C LOAD TRANSLATION ACCESS:     131682  HIT:      71845  MISS:      59837  HIT %:    54.5595  MISS %:    45.4405   MPKI: 1.19674
L2C PREFETCH  REQUESTED:     343375  ISSUED:     343375  USEFUL:      53942  USELESS:     179410
L2C USEFUL LOAD PREFETCHES:      53942 PREFETCH ISSUED TO LOWER LEVEL:     239103  ACCURACY: 22.5602
L2C TIMELY PREFETCHES:      53942 LATE PREFETCHES: 5738 DROPPED PREFETCHES: 0
L2C PREFETCHES SAME FILL-ORIGIN LEVEL: 176743 DIFFERENT FILL-ORIGIN LEVEL: 0
L2C AVERAGE MISS LATENCY: 87.1331 cycles
L2C RQ	ACCESS:    3123860	FORWARD:          0	MERGED:          0	TO_CACHE:    3123839
L2C WQ	ACCESS:     231459	FORWARD:         21	MERGED:          0	TO_CACHE:     231459
L2C PQ	ACCESS:    2039921	FORWARD:          0	MERGED:       3527	TO_CACHE:    2036394

L2C Instructions Evicting Data 239950
L2C Translations Evicting Data 28392
L2C Data Evicting Data 231548
L2C Instructions Evicting Instructions 246502
L2C Translations Evicting Instructions 27958
L2C Data Evicting Instructions 239115
L2C Instructions Evicting Translations 28105
L2C Translations Evicting Translations 3487
L2C Data Evicting Translations 28045
L2C Dense regions hint from L2: 0
PSCL5 TOTAL     ACCESS:     103715  HIT:     103715  MISS:          0  HIT %:        100  MISS %:          0   MPKI: 0
PSCL5 LOAD TRANSLATION ACCESS:     103715  HIT:     103715  MISS:          0  HIT %:        100  MISS %:          0   MPKI: 0
PSCL5 PREFETCH  REQUESTED:          0  ISSUED:          0  USEFUL:          0  USELESS:          0
PSCL5 USEFUL LOAD PREFETCHES:          0 PREFETCH ISSUED TO LOWER LEVEL:          0  ACCURACY: -nan
PSCL5 TIMELY PREFETCHES:          0 LATE PREFETCHES: 0 DROPPED PREFETCHES: 0
PSCL5 PREFETCHES SAME FILL-ORIGIN LEVEL: 0 DIFFERENT FILL-ORIGIN LEVEL: 0

PSCL4 TOTAL     ACCESS:      99485  HIT:      99250  MISS:        235  HIT %:    99.7638  MISS %:   0.236217   MPKI: 0.0047
PSCL4 LOAD TRANSLATION ACCESS:      99485  HIT:      99250  MISS:        235  HIT %:    99.7638  MISS %:   0.236217   MPKI: 0.0047
PSCL4 PREFETCH  REQUESTED:          0  ISSUED:          0  USEFUL:          0  USELESS:          0
PSCL4 USEFUL LOAD PREFETCHES:          0 PREFETCH ISSUED TO LOWER LEVEL:          0  ACCURACY: -nan
PSCL4 TIMELY PREFETCHES:          0 LATE PREFETCHES: 0 DROPPED PREFETCHES: 0
PSCL4 PREFETCHES SAME FILL-ORIGIN LEVEL: 0 DIFFERENT FILL-ORIGIN LEVEL: 0

PSCL3 TOTAL     ACCESS:     103170  HIT:     102510  MISS:        660  HIT %:    99.3603  MISS %:   0.639721   MPKI: 0.0132
PSCL3 LOAD TRANSLATION ACCESS:     103170  HIT:     102510  MISS:        660  HIT %:    99.3603  MISS %:   0.639721   MPKI: 0.0132
PSCL3 PREFETCH  REQUESTED:          0  ISSUED:          0  USEFUL:          0  USELESS:          0
PSCL3 USEFUL LOAD PREFETCHES:          0 PREFETCH ISSUED TO LOWER LEVEL:          0  ACCURACY: -nan
PSCL3 TIMELY PREFETCHES:          0 LATE PREFETCHES: 0 DROPPED PREFETCHES: 0
PSCL3 PREFETCHES SAME FILL-ORIGIN LEVEL: 0 DIFFERENT FILL-ORIGIN LEVEL: 0

PSCL2 TOTAL     ACCESS:     103715  HIT:      76536  MISS:      27179  HIT %:    73.7945  MISS %:    26.2055   MPKI: 0.54358
PSCL2 LOAD TRANSLATION ACCESS:     103715  HIT:      76536  MISS:      27179  HIT %:    73.7945  MISS %:    26.2055   MPKI: 0.54358
PSCL2 PREFETCH  REQUESTED:          0  ISSUED:          0  USEFUL:          0  USELESS:          0
PSCL2 USEFUL LOAD PREFETCHES:          0 PREFETCH ISSUED TO LOWER LEVEL:          0  ACCURACY: -nan
PSCL2 TIMELY PREFETCHES:          0 LATE PREFETCHES: 0 DROPPED PREFETCHES: 0
PSCL2 PREFETCHES SAME FILL-ORIGIN LEVEL: 0 DIFFERENT FILL-ORIGIN LEVEL: 0

LLC TOTAL     ACCESS:    1209431  HIT:    1074172  MISS:     135259  HIT %:    88.8163  MISS %:    11.1837   MPKI: 2.70518
LLC LOAD      ACCESS:     724805  HIT:     661408  MISS:      63397  HIT %:    91.2532  MISS %:    8.74677   MPKI: 1.26794
LLC RFO       ACCESS:      49354  HIT:      35260  MISS:      14094  HIT %:     71.443  MISS %:     28.557   MPKI: 0.28188
LLC PREFETCH  ACCESS:     239103  HIT:     185240  MISS:      53863  HIT %:    77.4729  MISS %:    22.5271   MPKI: 1.07726
LLC WRITEBACK ACCESS:     136332  HIT:     136262  MISS:         70  HIT %:    99.9487  MISS %:  0.0513452   MPKI: 0.0014
LLC LOAD TRANSLATION ACCESS:      59837  HIT:      56002  MISS:       3835  HIT %:    93.5909  MISS %:    6.40908   MPKI: 0.0767
LLC PREFETCH  REQUESTED:          0  ISSUED:          0  USEFUL:       4197  USELESS:      49569
LLC USEFUL LOAD PREFETCHES:       4197 PREFETCH ISSUED TO LOWER LEVEL:      53863  ACCURACY: 7.79199
LLC TIMELY PREFETCHES:       4197 LATE PREFETCHES: 0 DROPPED PREFETCHES: 0
LLC PREFETCHES SAME FILL-ORIGIN LEVEL: 0 DIFFERENT FILL-ORIGIN LEVEL: 0
LLC AVERAGE MISS LATENCY: 460.21 cycles
LLC RQ	ACCESS:     833998	FORWARD:          0	MERGED:          0	TO_CACHE:     833995
LLC WQ	ACCESS:     136332	FORWARD:          3	MERGED:          0	TO_CACHE:     136332
LLC PQ	ACCESS:     239103	FORWARD:          0	MERGED:          0	TO_CACHE:     239103

LLC Dense regions hint to LLC: 0

RAW hits: 820718
Loads Generated: 13435467
Loads sent to L1D: 12614762
Stores Generated: 4936223
Stores sent to L1D: 4936225
Major fault: 0 Minor fault: 6644
Allocated PAGES: 6644

stream: 
stream:times selected: 2319731
stream:pref_filled: 1060973
stream:pref_useful: 41806
stream:pref_late: 5445
stream:misses: 683191
stream:misses_by_poll: 0

CS: 
CS:times selected: 546722
CS:pref_filled: 258303
CS:pref_useful: 45778
CS:pref_late: 21390
CS:misses: 35717
CS:misses_by_poll: 0

CPLX: 
CPLX:times selected: 2125668
CPLX:pref_filled: 395059
CPLX:pref_useful: 76259
CPLX:pref_late: 20124
CPLX:misses: 683282
CPLX:misses_by_poll: 11

NL_L1: 
NL:times selected: 7672
NL:pref_filled: 809
NL:pref_useful: 135
NL:pref_late: 17
NL:misses: 284
NL:misses_by_poll: 0

total selections: 4999793
total_filled: 1696281
total_useful: 158769
total_late: 47205
total_polluted: 11
total_misses_after_warmup: 1927905
conflicts: 2162611
Degree Incremented Times: 0
Degree Decremented Times: 131536

L1 IP Table Write Accesses: 6666052
L1 IP Table Read Accesses: 4503441
L1 RST Write Accesses: 2250749
L1 RST Read Accesses: 4501498
L1 CSPT Write Accesses: 2250749
L1 CSPT Read Accesses: 4313267
L1 RR Filter Tag Write Accesses: 3080115
L1 RR Filter Tag Read Accesses: 124101028
L1 IP Table Tag Write Accesses: 9367029
L1 IP Table Tag Read Accesses: 9367029
L1 RST Tag Write Accesses: 0
L1 RST Tag Read Accesses: 19011864
L1 RR Filter Write Accesses: 0
L1 RR Filter Read Accesses: 3968335
test: 1152498
L2 IP Table Read Accesses: 6742871
L2 IP Table Write Accesses: 5526962
L2 IP Table Tag Read Accesses: 3546100
L2 IP Table Tag Write Accesses: 3546100

DRAM Statistics
 CHANNEL 0
 RQ ROW_BUFFER_HIT:      27865  ROW_BUFFER_MISS:     107320
 DBUS_CONGESTED:     144215
 WQ ROW_BUFFER_HIT:      15811  ROW_BUFFER_MISS:      31026  FULL:          0

 AVG_CONGESTED_CYCLE: 122
 All warmup complete: 2
Channel 0 Bank busy for read cycles: 0
Channel 0 Bank busy for write cycles: 0
Channel 0
Rank 0
0banks busy for read cycles: 98486749
0banks busy for write cycles: 15829
1banks busy for read cycles: 11589379
1banks busy for write cycles: 3326686
2banks busy for read cycles: 4204836
2banks busy for write cycles: 1308988
3banks busy for read cycles: 1747009
3banks busy for write cycles: 775896
4banks busy for read cycles: 856845
4banks busy for write cycles: 614714
5banks busy for read cycles: 451609
5banks busy for write cycles: 559265
6banks busy for read cycles: 260331
6banks busy for write cycles: 600436
7banks busy for read cycles: 207758
7banks busy for write cycles: 974040
8banks busy for read cycles: 1070859
8banks busy for write cycles: 2364636

CPU 0 Branch Prediction Accuracy: 93.6644% MPKI: 13.4005 Average ROB Occupancy at Mispredict: 30.1467
Branch types
NOT_BRANCH: 39424064 78.8481%
BRANCH_DIRECT_JUMP: 544515 1.08903%
BRANCH_INDIRECT: 135142 0.270284%
BRANCH_CONDITIONAL: 7935882 15.8718%
BRANCH_DIRECT_CALL: 780947 1.56189%
BRANCH_INDIRECT_CALL: 187570 0.37514%
BRANCH_RETURN: 991549 1.9831%
BRANCH_OTHER: 0 0%

@sumon_overall_L1D    158769     48371   1537623   1696281   6159172   6159587
@Sumon_Early_by_class_L1D     37743     43724     75627        12
@Sumon_Late_by_class_L1D      5073     21211     20079        12

@Sumon_Early_by_cycle_L1D    116027      4694     22666      2050      1581      3476      1690      1605      1400      1908      1122       550
@Sumon_Late_by_cycle_L1D     44150       596       372       199       133       699       373        47         2         0         0         0
@Sumon_Early_stream_L1D     23605      1630      1656      1468      1146      2441      1202      1176       930      1332       795       362
@Sumon_Early_CS_L1D     40547      1318       789       106       127       330       151       103        94        72        52        35
@Sumon_Early_CPLX_L1D     51590      1551     19938       281       180       471       265       286       303       400       234       128
@Sumon_Late_stream_L1D      3430       451       262       134        93       462       211        29         1         0         0         0
@Sumon_Late_CS_L1D     20637        74        68        47        31       196       140        17         1         0         0         0
@Sumon_Late_CPLX_L1D     19938        30        29        12         7        40        22         1         0         0         0         0
@sumon_overall_L2C     53942      5738    179410    233365    343375    343375
@Sumon_Early_by_class_L2C      1350       270       540         0
@Sumon_Late_by_class_L2C         0         0         0         0

@Sumon_Early_by_cycle_L2C      8105      5634      6015      3831      2907      7546      4133      2934      2063      2395      1488      6891
@Sumon_Late_by_cycle_L2C      3468      1595       569        65        24        14         3         0         0         0         0         0
@Sumon_Early_stream_L2C         0         0         0         0         0         0         0         0         1         6        54      1289
@Sumon_Early_CS_L2C         0         0         0         0         0         0         0         0         1         1        18       250
@Sumon_Early_CPLX_L2C         0         0         0         0         0         0         0         0         0        10        35       495
@Sumon_Late_stream_L2C         0         0         0         0         0         0         0         0         0         0         0         0
@Sumon_Late_CS_L2C         0         0         0         0         0         0         0         0         0         0         0         0
@Sumon_Late_CPLX_L2C         0         0         0         0         0         0         0         0         0         0         0         0
DRAM PAGES: 1048576
Allocated PAGES: 6644
