
*** ChampSim Multicore Out-of-Order Simulator ***

Warmup Instructions: 10000000
Simulation Instructions: 50000000
Number of CPUs: 1
LLC sets: 2048
LLC ways: 16
Off-chip DRAM Size: 4096 MB Channels: 1 Width: 64-bit Data Rate: 200 MT/s
CPU 0 runs traces/clientserver/server_026.champsimtrace.xz
.xz
CPU 0 Bimodal branch predictor
BTB has LRU replacement policy
ITLB has LRU replacement policy
DTLB has LRU replacement policy
STLB has LRU replacement policy
L1I has LRU replacement policy
IP Table Entries: 256
L1D has LRU replacement policy
IP_Table L2 entries: 256
L2C has LRU replacement policy
LLC has LRU replacement policy
Heartbeat CPU 0 instructions: 10000000 cycles: 2884961 heartbeat IPC: 3.46625 cumulative IPC: 3.46625 (Simulation time: 0 hr 9 min 19 sec) 

Warmup complete CPU 0 instructions: 10000001 cycles: 2884962 (Simulation time: 0 hr 9 min 19 sec) 

Heartbeat CPU 0 instructions: 20000002 cycles: 28583116 heartbeat IPC: 0.389133 cumulative IPC: 0.389133 (Simulation time: 0 hr 18 min 17 sec) 
Heartbeat CPU 0 instructions: 30000000 cycles: 53829750 heartbeat IPC: 0.396092 cumulative IPC: 0.392582 (Simulation time: 0 hr 26 min 51 sec) 
Heartbeat CPU 0 instructions: 40000002 cycles: 79367783 heartbeat IPC: 0.391573 cumulative IPC: 0.392245 (Simulation time: 0 hr 35 min 49 sec) 
Heartbeat CPU 0 instructions: 50000000 cycles: 104474310 heartbeat IPC: 0.398303 cumulative IPC: 0.393742 (Simulation time: 0 hr 44 min 26 sec) 
*** Reached end of trace for Core: 0 Repeating trace: traces/clientserver/server_026.champsimtrace.xz
Heartbeat CPU 0 instructions: 60000000 cycles: 130181540 heartbeat IPC: 0.388996 cumulative IPC: 0.392784 (Simulation time: 0 hr 52 min 22 sec) 
Finished CPU 0 instructions: 50000001 cycles: 127296586 cumulative IPC: 0.392784 (Simulation time: 0 hr 52 min 22 sec) 

ChampSim completed all CPUs

Region of Interest Statistics

CPU 0 cumulative IPC: 0.392784 instructions: 50000001 cycles: 127296586
ITLB TOTAL     ACCESS:    8447470  HIT:    7960323  MISS:     487147  HIT %:    94.2332  MISS %:    5.76678   MPKI: 9.74294
ITLB LOAD TRANSLATION ACCESS:    8447470  HIT:    7960323  MISS:     487147  HIT %:    94.2332  MISS %:    5.76678   MPKI: 9.74294
ITLB PREFETCH  REQUESTED:          0  ISSUED:          0  USEFUL:          0  USELESS:          0
ITLB USEFUL LOAD PREFETCHES:          0 PREFETCH ISSUED TO LOWER LEVEL:          0  ACCURACY: -nan
ITLB TIMELY PREFETCHES:          0 LATE PREFETCHES: 0 DROPPED PREFETCHES: 0
ITLB PREFETCHES SAME FILL-ORIGIN LEVEL: 0 DIFFERENT FILL-ORIGIN LEVEL: 0
ITLB AVERAGE MISS LATENCY: 9.08259 cycles
ITLB RQ	ACCESS:   10075202	FORWARD:          0	MERGED:    1504195	TO_CACHE:    8571007

DTLB TOTAL     ACCESS:   12577746  HIT:   12100742  MISS:     477004  HIT %:    96.2076  MISS %:    3.79244   MPKI: 9.54008
DTLB LOAD TRANSLATION ACCESS:   12577746  HIT:   12100742  MISS:     477004  HIT %:    96.2076  MISS %:    3.79244   MPKI: 9.54008
DTLB PREFETCH  REQUESTED:          0  ISSUED:          0  USEFUL:          0  USELESS:          0
DTLB USEFUL LOAD PREFETCHES:          0 PREFETCH ISSUED TO LOWER LEVEL:          0  ACCURACY: -nan
DTLB TIMELY PREFETCHES:          0 LATE PREFETCHES: 0 DROPPED PREFETCHES: 0
DTLB PREFETCHES SAME FILL-ORIGIN LEVEL: 0 DIFFERENT FILL-ORIGIN LEVEL: 0
DTLB AVERAGE MISS LATENCY: 9.49903 cycles
DTLB RQ	ACCESS:   15690377	FORWARD:          0	MERGED:    3092170	TO_CACHE:   12598207

STLB TOTAL     ACCESS:    1400203  HIT:    1397967  MISS:       2236  HIT %:    99.8403  MISS %:   0.159691   MPKI: 0.04472
STLB LOAD TRANSLATION ACCESS:     964151  HIT:     961915  MISS:       2236  HIT %:    99.7681  MISS %:   0.231914   MPKI: 0.04472
STLB TRANSLATION FROM L1D PREFETCHER ACCESS:     436052  HIT:     436052  MISS:          0  HIT %:        100  MISS %:          0   MPKI: 0
STLB PREFETCH  REQUESTED:          0  ISSUED:          0  USEFUL:          0  USELESS:          0
STLB USEFUL LOAD PREFETCHES:          0 PREFETCH ISSUED TO LOWER LEVEL:          0  ACCURACY: -nan
STLB TIMELY PREFETCHES:          0 LATE PREFETCHES: 0 DROPPED PREFETCHES: 0
STLB PREFETCHES SAME FILL-ORIGIN LEVEL: 0 DIFFERENT FILL-ORIGIN LEVEL: 0
STLB AVERAGE MISS LATENCY: 119.907 cycles
STLB RQ	ACCESS:    1525762	FORWARD:          0	MERGED:     125559	TO_CACHE:    1400203

STLB Hit, L1D data hit: 0
STLB Hit, L2C data hit: 0
STLB Hit, LLC data hit: 0
STLB Hit, LLC data miss: 0
STLB STLB hints to L2: 0
L1D TOTAL     ACCESS:   15684039  HIT:   14487076  MISS:    1196963  HIT %:    92.3683  MISS %:    7.63173   MPKI: 23.9393
L1D LOAD      ACCESS:    8752700  HIT:    8051309  MISS:     701391  HIT %:    91.9866  MISS %:    8.01342   MPKI: 14.0278
L1D RFO       ACCESS:    6388516  HIT:    6091505  MISS:     297011  HIT %:    95.3509  MISS %:    4.64914   MPKI: 5.94022
L1D PREFETCH  ACCESS:     542823  HIT:     344262  MISS:     198561  HIT %:    63.4207  MISS %:    36.5793   MPKI: 3.97122
L1D PREFETCH  REQUESTED:    1123517  ISSUED:    1123462  USEFUL:      54196  USELESS:     144348
L1D USEFUL LOAD PREFETCHES:      54196 PREFETCH ISSUED TO LOWER LEVEL:     199010  ACCURACY: 27.2328
L1D TIMELY PREFETCHES:      54196 LATE PREFETCHES: 52207 DROPPED PREFETCHES: 0
L1D PREFETCHES SAME FILL-ORIGIN LEVEL: 199010 DIFFERENT FILL-ORIGIN LEVEL: 0
L1D AVERAGE MISS LATENCY: 25663.5 cycles
L1D RQ	ACCESS:   12101915	FORWARD:          0	MERGED:    3151250	TO_CACHE:    8837426
L1D WQ	ACCESS:    6899106	FORWARD:     113479	MERGED:      46155	TO_CACHE:    6852951
L1D PQ	ACCESS:     561851	FORWARD:          0	MERGED:          0	TO_CACHE:     561611

L1D UNIQUE REGIONS ACCESSED: 0
L1D REGIONS CONFLICTS: 0
L1D Cross Page Prefetch Requests: 0
L1D Same Page Prefetch Requests: 666919
L1D ROI Sum of L1D PQ occupancy: 10689350
L1D PREFETCHES PUSHED FROM L2C: 0
L1I TOTAL     ACCESS:    9613985  HIT:    6879474  MISS:    2734511  HIT %:    71.5569  MISS %:    28.4431   MPKI: 54.6902
L1I LOAD      ACCESS:    9613985  HIT:    6879474  MISS:    2734511  HIT %:    71.5569  MISS %:    28.4431   MPKI: 54.6902
L1I PREFETCH  REQUESTED:          0  ISSUED:          0  USEFUL:          0  USELESS:          0
L1I USEFUL LOAD PREFETCHES:          0 PREFETCH ISSUED TO LOWER LEVEL:          0  ACCURACY: -nan
L1I TIMELY PREFETCHES:          0 LATE PREFETCHES: 0 DROPPED PREFETCHES: 0
L1I PREFETCHES SAME FILL-ORIGIN LEVEL: 0 DIFFERENT FILL-ORIGIN LEVEL: 0
L1I AVERAGE MISS LATENCY: 18.9711 cycles
L1I RQ	ACCESS:   13820523	FORWARD:          0	MERGED:    3745321	TO_CACHE:   10075202

BTB TOTAL     ACCESS:    5982230  HIT:    3991090  MISS:    1991140  HIT %:    66.7158  MISS %:    33.2842   MPKI: 39.8228
BTB BRANCH_DIRECT_JUMP	ACCESS:     522633  HIT:     348042  MISS:     174591
BTB BRANCH_INDIRECT	ACCESS:     204723  HIT:     167232  MISS:      37491
BTB BRANCH_CONDITIONAL	ACCESS:    3049093  HIT:    2491585  MISS:     557508
BTB BRANCH_DIRECT_CALL	ACCESS:     929734  HIT:     525672  MISS:     404062
BTB BRANCH_INDIRECT_CALL	ACCESS:     173167  HIT:      95072  MISS:      78095
BTB BRANCH_RETURN	ACCESS:    1102880  HIT:     363487  MISS:     739393
BTB BRANCH_OTHER ACCESS:          0  HIT:          0  MISS:          0

L2C TOTAL     ACCESS:    5049867  HIT:    4219593  MISS:     830274  HIT %:    83.5585  MISS %:    16.4415   MPKI: 16.6055
L2C LOAD      ACCESS:    3435897  HIT:    2874172  MISS:     561725  HIT %:    83.6513  MISS %:    16.3487   MPKI: 11.2345
L2C DATA LOAD MPKI: 2.49876
L2C INSTRUCTION LOAD MPKI: 8.73574
L2C RFO       ACCESS:     296562  HIT:     196102  MISS:     100460  HIT %:    66.1251  MISS %:    33.8749   MPKI: 2.0092
L2C PREFETCH  ACCESS:     786352  HIT:     626910  MISS:     159442  HIT %:    79.7238  MISS %:    20.2762   MPKI: 3.18884
L2C DATA PREFETCH MPKI: 3.18884
L2C INSTRUCTION PREFETCH MPKI: 0
L2C WRITEBACK ACCESS:     528669  HIT:     521660  MISS:       7009  HIT %:    98.6742  MISS %:    1.32578   MPKI: 0.14018
L2C LOAD TRANSLATION ACCESS:       2387  HIT:        749  MISS:       1638  HIT %:    31.3783  MISS %:    68.6217   MPKI: 0.03276
L2C PREFETCH  REQUESTED:     603788  ISSUED:     603788  USEFUL:      31187  USELESS:     128223
L2C USEFUL LOAD PREFETCHES:      31187 PREFETCH ISSUED TO LOWER LEVEL:     162232  ACCURACY: 19.2237
L2C TIMELY PREFETCHES:      31187 LATE PREFETCHES: 2790 DROPPED PREFETCHES: 0
L2C PREFETCHES SAME FILL-ORIGIN LEVEL: 98702 DIFFERENT FILL-ORIGIN LEVEL: 0
L2C AVERAGE MISS LATENCY: 77.9857 cycles
L2C RQ	ACCESS:    3734851	FORWARD:          0	MERGED:          0	TO_CACHE:    3734846
L2C WQ	ACCESS:     528669	FORWARD:          7	MERGED:          0	TO_CACHE:     528669
L2C PQ	ACCESS:     802798	FORWARD:          0	MERGED:       5814	TO_CACHE:     796982

L2C Instructions Evicting Data 187299
L2C Translations Evicting Data 1193
L2C Data Evicting Data 201220
L2C Instructions Evicting Instructions 248991
L2C Translations Evicting Instructions 402
L2C Data Evicting Instructions 182510
L2C Instructions Evicting Translations 496
L2C Translations Evicting Translations 43
L2C Data Evicting Translations 1095
L2C Dense regions hint from L2: 0
PSCL5 TOTAL     ACCESS:       2236  HIT:       2236  MISS:          0  HIT %:        100  MISS %:          0   MPKI: 0
PSCL5 LOAD TRANSLATION ACCESS:       2236  HIT:       2236  MISS:          0  HIT %:        100  MISS %:          0   MPKI: 0
PSCL5 PREFETCH  REQUESTED:          0  ISSUED:          0  USEFUL:          0  USELESS:          0
PSCL5 USEFUL LOAD PREFETCHES:          0 PREFETCH ISSUED TO LOWER LEVEL:          0  ACCURACY: -nan
PSCL5 TIMELY PREFETCHES:          0 LATE PREFETCHES: 0 DROPPED PREFETCHES: 0
PSCL5 PREFETCHES SAME FILL-ORIGIN LEVEL: 0 DIFFERENT FILL-ORIGIN LEVEL: 0

PSCL4 TOTAL     ACCESS:       2081  HIT:       2069  MISS:         12  HIT %:    99.4234  MISS %:   0.576646   MPKI: 0.00024
PSCL4 LOAD TRANSLATION ACCESS:       2081  HIT:       2069  MISS:         12  HIT %:    99.4234  MISS %:   0.576646   MPKI: 0.00024
PSCL4 PREFETCH  REQUESTED:          0  ISSUED:          0  USEFUL:          0  USELESS:          0
PSCL4 USEFUL LOAD PREFETCHES:          0 PREFETCH ISSUED TO LOWER LEVEL:          0  ACCURACY: -nan
PSCL4 TIMELY PREFETCHES:          0 LATE PREFETCHES: 0 DROPPED PREFETCHES: 0
PSCL4 PREFETCHES SAME FILL-ORIGIN LEVEL: 0 DIFFERENT FILL-ORIGIN LEVEL: 0

PSCL3 TOTAL     ACCESS:       2120  HIT:       2107  MISS:         13  HIT %:    99.3868  MISS %:   0.613208   MPKI: 0.00026
PSCL3 LOAD TRANSLATION ACCESS:       2120  HIT:       2107  MISS:         13  HIT %:    99.3868  MISS %:   0.613208   MPKI: 0.00026
PSCL3 PREFETCH  REQUESTED:          0  ISSUED:          0  USEFUL:          0  USELESS:          0
PSCL3 USEFUL LOAD PREFETCHES:          0 PREFETCH ISSUED TO LOWER LEVEL:          0  ACCURACY: -nan
PSCL3 TIMELY PREFETCHES:          0 LATE PREFETCHES: 0 DROPPED PREFETCHES: 0
PSCL3 PREFETCHES SAME FILL-ORIGIN LEVEL: 0 DIFFERENT FILL-ORIGIN LEVEL: 0

PSCL2 TOTAL     ACCESS:       2236  HIT:       2101  MISS:        135  HIT %:    93.9624  MISS %:    6.03757   MPKI: 0.0027
PSCL2 LOAD TRANSLATION ACCESS:       2236  HIT:       2101  MISS:        135  HIT %:    93.9624  MISS %:    6.03757   MPKI: 0.0027
PSCL2 PREFETCH  REQUESTED:          0  ISSUED:          0  USEFUL:          0  USELESS:          0
PSCL2 USEFUL LOAD PREFETCHES:          0 PREFETCH ISSUED TO LOWER LEVEL:          0  ACCURACY: -nan
PSCL2 TIMELY PREFETCHES:          0 LATE PREFETCHES: 0 DROPPED PREFETCHES: 0
PSCL2 PREFETCHES SAME FILL-ORIGIN LEVEL: 0 DIFFERENT FILL-ORIGIN LEVEL: 0

LLC TOTAL     ACCESS:     985228  HIT:     952840  MISS:      32388  HIT %:    96.7126  MISS %:    3.28736   MPKI: 0.64776
LLC LOAD      ACCESS:     559067  HIT:     554019  MISS:       5048  HIT %:    99.0971  MISS %:   0.902933   MPKI: 0.10096
LLC RFO       ACCESS:     100324  HIT:      84769  MISS:      15555  HIT %:    84.4952  MISS %:    15.5048   MPKI: 0.3111
LLC PREFETCH  ACCESS:     162232  HIT:     150712  MISS:      11520  HIT %:    92.8991  MISS %:    7.10094   MPKI: 0.2304
LLC WRITEBACK ACCESS:     161967  HIT:     161886  MISS:         81  HIT %:      99.95  MISS %:  0.0500102   MPKI: 0.00162
LLC LOAD TRANSLATION ACCESS:       1638  HIT:       1454  MISS:        184  HIT %:    88.7668  MISS %:    11.2332   MPKI: 0.00368
LLC PREFETCH  REQUESTED:          0  ISSUED:          0  USEFUL:        925  USELESS:       6419
LLC USEFUL LOAD PREFETCHES:        925 PREFETCH ISSUED TO LOWER LEVEL:      11520  ACCURACY: 8.02951
LLC TIMELY PREFETCHES:        925 LATE PREFETCHES: 0 DROPPED PREFETCHES: 0
LLC PREFETCHES SAME FILL-ORIGIN LEVEL: 0 DIFFERENT FILL-ORIGIN LEVEL: 0
LLC AVERAGE MISS LATENCY: 1238.93 cycles
LLC RQ	ACCESS:     661033	FORWARD:          0	MERGED:          0	TO_CACHE:     661029
LLC WQ	ACCESS:     161967	FORWARD:          4	MERGED:          0	TO_CACHE:     161967
LLC PQ	ACCESS:     162232	FORWARD:          0	MERGED:          0	TO_CACHE:     162232

LLC Dense regions hint to LLC: 0

RAW hits: 515588
Loads Generated: 12617505
Loads sent to L1D: 12101915
Stores Generated: 6899109
Stores sent to L1D: 6899106
Major fault: 0 Minor fault: 2264
Allocated PAGES: 2264

stream: 
stream:times selected: 1047853
stream:pref_filled: 140130
stream:pref_useful: 23627
stream:pref_late: 37490
stream:misses: 6737
stream:misses_by_poll: 0

CS: 
CS:times selected: 140360
CS:pref_filled: 62733
CS:pref_useful: 37601
CS:pref_late: 7597
CS:misses: 20881
CS:misses_by_poll: 8

CPLX: 
CPLX:times selected: 905721
CPLX:pref_filled: 24920
CPLX:pref_useful: 4680
CPLX:pref_late: 1987
CPLX:misses: 91654
CPLX:misses_by_poll: 0

NL_L1: 
NL:times selected: 6047
NL:pref_filled: 544
NL:pref_useful: 68
NL:pref_late: 32
NL:misses: 328
NL:misses_by_poll: 0

total selections: 2099981
total_filled: 198561
total_useful: 54196
total_late: 47288
total_polluted: 8
total_misses_after_warmup: 786115
conflicts: 3241264
Degree Incremented Times: 0
Degree Decremented Times: 185587

L1 IP Table Write Accesses: 5301725
L1 IP Table Read Accesses: 2060461
L1 RST Write Accesses: 884796
L1 RST Read Accesses: 1769592
L1 CSPT Write Accesses: 884796
L1 CSPT Read Accesses: 1648336
L1 RR Filter Tag Write Accesses: 561906
L1 RR Filter Tag Read Accesses: 40244175
L1 IP Table Tag Write Accesses: 8837424
L1 IP Table Tag Read Accesses: 8837424
L1 RST Tag Write Accesses: 0
L1 RST Tag Read Accesses: 7583378
L1 RR Filter Write Accesses: 0
L1 RR Filter Read Accesses: 1474642
test: 146225
L2 IP Table Read Accesses: 1178388
L2 IP Table Write Accesses: 1611799
L2 IP Table Tag Read Accesses: 894768
L2 IP Table Tag Write Accesses: 894768

DRAM Statistics
 CHANNEL 0
 RQ ROW_BUFFER_HIT:      17517  ROW_BUFFER_MISS:      14780
 DBUS_CONGESTED:      33742
 WQ ROW_BUFFER_HIT:        620  ROW_BUFFER_MISS:       6130  FULL:          0

 AVG_CONGESTED_CYCLE: 145
 All warmup complete: 2
Channel 0 Bank busy for read cycles: 0
Channel 0 Bank busy for write cycles: 0
Channel 0
Rank 0
0banks busy for read cycles: 121112816
0banks busy for write cycles: 1814
1banks busy for read cycles: 1071489
1banks busy for write cycles: 342739
2banks busy for read cycles: 628996
2banks busy for write cycles: 171697
3banks busy for read cycles: 327699
3banks busy for write cycles: 115383
4banks busy for read cycles: 279566
4banks busy for write cycles: 90810
5banks busy for read cycles: 240523
5banks busy for write cycles: 85495
6banks busy for read cycles: 211246
6banks busy for write cycles: 83135
7banks busy for read cycles: 232927
7banks busy for write cycles: 73348
8banks busy for read cycles: 1997025
8banks busy for write cycles: 229879

CPU 0 Branch Prediction Accuracy: 91.6417% MPKI: 15.2922 Average ROB Occupancy at Mispredict: 17.3548
Branch types
NOT_BRANCH: 40851762 81.7035%
BRANCH_DIRECT_JUMP: 522633 1.04527%
BRANCH_INDIRECT: 204723 0.409446%
BRANCH_CONDITIONAL: 6214815 12.4296%
BRANCH_DIRECT_CALL: 929734 1.85947%
BRANCH_INDIRECT_CALL: 173167 0.346334%
BRANCH_RETURN: 1102880 2.20576%
BRANCH_OTHER: 0 0%

@sumon_overall_L1D     54196     52207    144348    198561   1123462   1123517
@Sumon_Early_by_class_L1D     18570     31375      3105        14
@Sumon_Late_by_class_L1D     36531      7321      1571        14

@Sumon_Early_by_cycle_L1D     36813      2710      2003      3911       269      1334       919      1522      1178      2482       735       320
@Sumon_Late_by_cycle_L1D     41633       735       669       644       578      1300        36         5         0         0         0         0
@Sumon_Early_stream_L1D      6169      1968      1226      3287       185       919       588       971       822      1614       573       248
@Sumon_Early_CS_L1D     29721       480       576        81        19        80        15       280         7        34        12        70
@Sumon_Early_CPLX_L1D       705       194       169       487        49       330       209       255       216       342       147         2
@Sumon_Late_stream_L1D     35994       455        45        20        11         6         0         0         0         0         0         0
@Sumon_Late_CS_L1D      3995       219       590       620       563      1293        36         5         0         0         0         0
@Sumon_Late_CPLX_L1D      1519        47         3         1         1         0         0         0         0         0         0         0
@sumon_overall_L2C     31187      2790    128223    159442    603788    603788
@Sumon_Early_by_class_L2C      2111       219       373         0
@Sumon_Late_by_class_L2C         0         0         0         0

@Sumon_Early_by_cycle_L2C      5162      2717      2477      2050       861      3898      2805      1892      1056      1637      1110      5522
@Sumon_Late_by_cycle_L2C      2127       623        39         0         1         0         0         0         0         0         0         0
@Sumon_Early_stream_L2C         0         0         0         0         0         0         0         0         0        14       402      1695
@Sumon_Early_CS_L2C         0         0         0         0         0         0         0         0         0         0         1       218
@Sumon_Early_CPLX_L2C         0         0         0         0         0         0         0         0         0         1        30       342
@Sumon_Late_stream_L2C         0         0         0         0         0         0         0         0         0         0         0         0
@Sumon_Late_CS_L2C         0         0         0         0         0         0         0         0         0         0         0         0
@Sumon_Late_CPLX_L2C         0         0         0         0         0         0         0         0         0         0         0         0
DRAM PAGES: 1048576
Allocated PAGES: 2264
