
*** ChampSim Multicore Out-of-Order Simulator ***

Warmup Instructions: 10000000
Simulation Instructions: 50000000
Number of CPUs: 1
LLC sets: 2048
LLC ways: 16
Off-chip DRAM Size: 4096 MB Channels: 1 Width: 64-bit Data Rate: 200 MT/s
CPU 0 runs traces/clientserver/server_013.champsimtrace.xz
.xz
CPU 0 Bimodal branch predictor
BTB has LRU replacement policy
ITLB has LRU replacement policy
DTLB has LRU replacement policy
STLB has LRU replacement policy
L1I has LRU replacement policy
IP Table Entries: 256
L1D has LRU replacement policy
IP_Table L2 entries: 256
L2C has LRU replacement policy
LLC has LRU replacement policy
Heartbeat CPU 0 instructions: 10000000 cycles: 2774882 heartbeat IPC: 3.60376 cumulative IPC: 3.60376 (Simulation time: 0 hr 8 min 22 sec) 

Warmup complete CPU 0 instructions: 10000004 cycles: 2774883 (Simulation time: 0 hr 8 min 22 sec) 

Heartbeat CPU 0 instructions: 20000001 cycles: 24644048 heartbeat IPC: 0.457265 cumulative IPC: 0.457265 (Simulation time: 0 hr 16 min 46 sec) 
Heartbeat CPU 0 instructions: 30000002 cycles: 46353103 heartbeat IPC: 0.460637 cumulative IPC: 0.458945 (Simulation time: 0 hr 25 min 8 sec) 
Heartbeat CPU 0 instructions: 40000002 cycles: 67963370 heartbeat IPC: 0.462743 cumulative IPC: 0.460204 (Simulation time: 0 hr 33 min 31 sec) 
Heartbeat CPU 0 instructions: 50000000 cycles: 90355684 heartbeat IPC: 0.446582 cumulative IPC: 0.456721 (Simulation time: 0 hr 42 min 10 sec) 
Heartbeat CPU 0 instructions: 60000000 cycles: 112436800 heartbeat IPC: 0.452876 cumulative IPC: 0.455947 (Simulation time: 0 hr 50 min 25 sec) 
Finished CPU 0 instructions: 50000001 cycles: 109661933 cumulative IPC: 0.455947 (Simulation time: 0 hr 50 min 25 sec) 

ChampSim completed all CPUs

Region of Interest Statistics

CPU 0 cumulative IPC: 0.455947 instructions: 50000001 cycles: 109661933
ITLB TOTAL     ACCESS:    7868829  HIT:    7668346  MISS:     200483  HIT %:    97.4522  MISS %:    2.54781   MPKI: 4.00966
ITLB LOAD TRANSLATION ACCESS:    7868829  HIT:    7668346  MISS:     200483  HIT %:    97.4522  MISS %:    2.54781   MPKI: 4.00966
ITLB PREFETCH  REQUESTED:          0  ISSUED:          0  USEFUL:          0  USELESS:          0
ITLB USEFUL LOAD PREFETCHES:          0 PREFETCH ISSUED TO LOWER LEVEL:          0  ACCURACY: -nan
ITLB TIMELY PREFETCHES:          0 LATE PREFETCHES: 0 DROPPED PREFETCHES: 0
ITLB PREFETCHES SAME FILL-ORIGIN LEVEL: 0 DIFFERENT FILL-ORIGIN LEVEL: 0
ITLB AVERAGE MISS LATENCY: 18.444 cycles
ITLB RQ	ACCESS:    9665360	FORWARD:          0	MERGED:    1744111	TO_CACHE:    7921249

DTLB TOTAL     ACCESS:   10050987  HIT:    9390092  MISS:     660895  HIT %:    93.4246  MISS %:    6.57542   MPKI: 13.2179
DTLB LOAD TRANSLATION ACCESS:   10050987  HIT:    9390092  MISS:     660895  HIT %:    93.4246  MISS %:    6.57542   MPKI: 13.2179
DTLB PREFETCH  REQUESTED:          0  ISSUED:          0  USEFUL:          0  USELESS:          0
DTLB USEFUL LOAD PREFETCHES:          0 PREFETCH ISSUED TO LOWER LEVEL:          0  ACCURACY: -nan
DTLB TIMELY PREFETCHES:          0 LATE PREFETCHES: 0 DROPPED PREFETCHES: 0
DTLB PREFETCHES SAME FILL-ORIGIN LEVEL: 0 DIFFERENT FILL-ORIGIN LEVEL: 0
DTLB AVERAGE MISS LATENCY: 15.9728 cycles
DTLB RQ	ACCESS:   12402186	FORWARD:          0	MERGED:    2313353	TO_CACHE:   10088833

STLB TOTAL     ACCESS:    1047606  HIT:     926915  MISS:     120691  HIT %:    88.4794  MISS %:    11.5206   MPKI: 2.41382
STLB LOAD TRANSLATION ACCESS:     861378  HIT:     740687  MISS:     120691  HIT %:    85.9886  MISS %:    14.0114   MPKI: 2.41382
STLB TRANSLATION FROM L1D PREFETCHER ACCESS:     186228  HIT:     186228  MISS:          0  HIT %:        100  MISS %:          0   MPKI: 0
STLB PREFETCH  REQUESTED:          0  ISSUED:          0  USEFUL:          0  USELESS:          0
STLB USEFUL LOAD PREFETCHES:          0 PREFETCH ISSUED TO LOWER LEVEL:          0  ACCURACY: -nan
STLB TIMELY PREFETCHES:          0 LATE PREFETCHES: 0 DROPPED PREFETCHES: 0
STLB PREFETCHES SAME FILL-ORIGIN LEVEL: 0 DIFFERENT FILL-ORIGIN LEVEL: 0
STLB AVERAGE MISS LATENCY: 53.7277 cycles
STLB RQ	ACCESS:    1096811	FORWARD:          0	MERGED:      49205	TO_CACHE:    1047606

STLB Hit, L1D data hit: 0
STLB Hit, L2C data hit: 0
STLB Hit, LLC data hit: 0
STLB Hit, LLC data miss: 0
STLB STLB hints to L2: 0
L1D TOTAL     ACCESS:   12485123  HIT:   11752009  MISS:     733114  HIT %:    94.1281  MISS %:     5.8719   MPKI: 14.6623
L1D LOAD      ACCESS:    7261607  HIT:    6722228  MISS:     539379  HIT %:    92.5722  MISS %:    7.42782   MPKI: 10.7876
L1D RFO       ACCESS:    4997137  HIT:    4906759  MISS:      90378  HIT %:    98.1914  MISS %:     1.8086   MPKI: 1.80756
L1D PREFETCH  ACCESS:     226379  HIT:     123022  MISS:     103357  HIT %:    54.3434  MISS %:    45.6566   MPKI: 2.06714
L1D PREFETCH  REQUESTED:     471200  ISSUED:     471027  USEFUL:      30321  USELESS:      72947
L1D USEFUL LOAD PREFETCHES:      30321 PREFETCH ISSUED TO LOWER LEVEL:     103603  ACCURACY: 29.2665
L1D TIMELY PREFETCHES:      30321 LATE PREFETCHES: 8467 DROPPED PREFETCHES: 0
L1D PREFETCHES SAME FILL-ORIGIN LEVEL: 103603 DIFFERENT FILL-ORIGIN LEVEL: 0
L1D AVERAGE MISS LATENCY: 18517.8 cycles
L1D RQ	ACCESS:   10677788	FORWARD:          0	MERGED:    3295101	TO_CACHE:    7299029
L1D WQ	ACCESS:    5192932	FORWARD:      83819	MERGED:      89775	TO_CACHE:    5103157
L1D PQ	ACCESS:     235594	FORWARD:          0	MERGED:          0	TO_CACHE:     235433

L1D UNIQUE REGIONS ACCESSED: 0
L1D REGIONS CONFLICTS: 0
L1D Cross Page Prefetch Requests: 0
L1D Same Page Prefetch Requests: 286152
L1D ROI Sum of L1D PQ occupancy: 3910124
L1D PREFETCHES PUSHED FROM L2C: 0
L1I TOTAL     ACCESS:    9220289  HIT:    7867816  MISS:    1352473  HIT %:    85.3316  MISS %:    14.6684   MPKI: 27.0495
L1I LOAD      ACCESS:    9220289  HIT:    7867816  MISS:    1352473  HIT %:    85.3316  MISS %:    14.6684   MPKI: 27.0495
L1I PREFETCH  REQUESTED:          0  ISSUED:          0  USEFUL:          0  USELESS:          0
L1I USEFUL LOAD PREFETCHES:          0 PREFETCH ISSUED TO LOWER LEVEL:          0  ACCURACY: -nan
L1I TIMELY PREFETCHES:          0 LATE PREFETCHES: 0 DROPPED PREFETCHES: 0
L1I PREFETCHES SAME FILL-ORIGIN LEVEL: 0 DIFFERENT FILL-ORIGIN LEVEL: 0
L1I AVERAGE MISS LATENCY: 32.3994 cycles
L1I RQ	ACCESS:   13830958	FORWARD:          0	MERGED:    4165598	TO_CACHE:    9665360

BTB TOTAL     ACCESS:    4435084  HIT:    3605586  MISS:     829498  HIT %:    81.2969  MISS %:    18.7031   MPKI: 16.59
BTB BRANCH_DIRECT_JUMP	ACCESS:     460299  HIT:     393852  MISS:      66447
BTB BRANCH_INDIRECT	ACCESS:     145929  HIT:     112911  MISS:      33018
BTB BRANCH_CONDITIONAL	ACCESS:    2139896  HIT:    1862301  MISS:     277595
BTB BRANCH_DIRECT_CALL	ACCESS:     662481  HIT:     536156  MISS:     126325
BTB BRANCH_INDIRECT_CALL	ACCESS:     164978  HIT:     152164  MISS:      12814
BTB BRANCH_RETURN	ACCESS:     861501  HIT:     548202  MISS:     313299
BTB BRANCH_OTHER ACCESS:          0  HIT:          0  MISS:          0

L2C TOTAL     ACCESS:    2933130  HIT:    1502396  MISS:    1430734  HIT %:    51.2216  MISS %:    48.7784   MPKI: 28.6147
L2C LOAD      ACCESS:    1891830  HIT:     895235  MISS:     996595  HIT %:    47.3211  MISS %:    52.6789   MPKI: 19.9319
L2C DATA LOAD MPKI: 5.39976
L2C INSTRUCTION LOAD MPKI: 14.5321
L2C RFO       ACCESS:      90115  HIT:      38376  MISS:      51739  HIT %:    42.5856  MISS %:    57.4144   MPKI: 1.03478
L2C PREFETCH  ACCESS:     535088  HIT:     230573  MISS:     304515  HIT %:    43.0907  MISS %:    56.9093   MPKI: 6.0903
L2C DATA PREFETCH MPKI: 6.0903
L2C INSTRUCTION PREFETCH MPKI: 0
L2C WRITEBACK ACCESS:     263146  HIT:     259315  MISS:       3831  HIT %:    98.5442  MISS %:    1.45585   MPKI: 0.07662
L2C LOAD TRANSLATION ACCESS:     152951  HIT:      78897  MISS:      74054  HIT %:    51.5832  MISS %:    48.4168   MPKI: 1.48108
L2C PREFETCH  REQUESTED:     463848  ISSUED:     463848  USEFUL:      76266  USELESS:     228270
L2C USEFUL LOAD PREFETCHES:      76266 PREFETCH ISSUED TO LOWER LEVEL:     313104  ACCURACY: 24.358
L2C TIMELY PREFETCHES:      76266 LATE PREFETCHES: 8589 DROPPED PREFETCHES: 0
L2C PREFETCHES SAME FILL-ORIGIN LEVEL: 239577 DIFFERENT FILL-ORIGIN LEVEL: 0
L2C AVERAGE MISS LATENCY: 56.3754 cycles
L2C RQ	ACCESS:    2134935	FORWARD:          0	MERGED:          0	TO_CACHE:    2134896
L2C WQ	ACCESS:     263146	FORWARD:         39	MERGED:          0	TO_CACHE:     263146
L2C PQ	ACCESS:     567451	FORWARD:          0	MERGED:       4988	TO_CACHE:     562463

L2C Instructions Evicting Data 318908
L2C Translations Evicting Data 33126
L2C Data Evicting Data 276457
L2C Instructions Evicting Instructions 370044
L2C Translations Evicting Instructions 37400
L2C Data Evicting Instructions 317119
L2C Instructions Evicting Translations 37655
L2C Translations Evicting Translations 3528
L2C Data Evicting Translations 32666
L2C Dense regions hint from L2: 0
PSCL5 TOTAL     ACCESS:     120691  HIT:     120691  MISS:          0  HIT %:        100  MISS %:          0   MPKI: 0
PSCL5 LOAD TRANSLATION ACCESS:     120691  HIT:     120691  MISS:          0  HIT %:        100  MISS %:          0   MPKI: 0
PSCL5 PREFETCH  REQUESTED:          0  ISSUED:          0  USEFUL:          0  USELESS:          0
PSCL5 USEFUL LOAD PREFETCHES:          0 PREFETCH ISSUED TO LOWER LEVEL:          0  ACCURACY: -nan
PSCL5 TIMELY PREFETCHES:          0 LATE PREFETCHES: 0 DROPPED PREFETCHES: 0
PSCL5 PREFETCHES SAME FILL-ORIGIN LEVEL: 0 DIFFERENT FILL-ORIGIN LEVEL: 0

PSCL4 TOTAL     ACCESS:     113259  HIT:     112926  MISS:        333  HIT %:     99.706  MISS %:   0.294016   MPKI: 0.00666
PSCL4 LOAD TRANSLATION ACCESS:     113259  HIT:     112926  MISS:        333  HIT %:     99.706  MISS %:   0.294016   MPKI: 0.00666
PSCL4 PREFETCH  REQUESTED:          0  ISSUED:          0  USEFUL:          0  USELESS:          0
PSCL4 USEFUL LOAD PREFETCHES:          0 PREFETCH ISSUED TO LOWER LEVEL:          0  ACCURACY: -nan
PSCL4 TIMELY PREFETCHES:          0 LATE PREFETCHES: 0 DROPPED PREFETCHES: 0
PSCL4 PREFETCHES SAME FILL-ORIGIN LEVEL: 0 DIFFERENT FILL-ORIGIN LEVEL: 0

PSCL3 TOTAL     ACCESS:     119815  HIT:     118798  MISS:       1017  HIT %:    99.1512  MISS %:   0.848809   MPKI: 0.02034
PSCL3 LOAD TRANSLATION ACCESS:     119815  HIT:     118798  MISS:       1017  HIT %:    99.1512  MISS %:   0.848809   MPKI: 0.02034
PSCL3 PREFETCH  REQUESTED:          0  ISSUED:          0  USEFUL:          0  USELESS:          0
PSCL3 USEFUL LOAD PREFETCHES:          0 PREFETCH ISSUED TO LOWER LEVEL:          0  ACCURACY: -nan
PSCL3 TIMELY PREFETCHES:          0 LATE PREFETCHES: 0 DROPPED PREFETCHES: 0
PSCL3 PREFETCHES SAME FILL-ORIGIN LEVEL: 0 DIFFERENT FILL-ORIGIN LEVEL: 0

PSCL2 TOTAL     ACCESS:     120691  HIT:      89681  MISS:      31010  HIT %:    74.3063  MISS %:    25.6937   MPKI: 0.6202
PSCL2 LOAD TRANSLATION ACCESS:     120691  HIT:      89681  MISS:      31010  HIT %:    74.3063  MISS %:    25.6937   MPKI: 0.6202
PSCL2 PREFETCH  REQUESTED:          0  ISSUED:          0  USEFUL:          0  USELESS:          0
PSCL2 USEFUL LOAD PREFETCHES:          0 PREFETCH ISSUED TO LOWER LEVEL:          0  ACCURACY: -nan
PSCL2 TIMELY PREFETCHES:          0 LATE PREFETCHES: 0 DROPPED PREFETCHES: 0
PSCL2 PREFETCHES SAME FILL-ORIGIN LEVEL: 0 DIFFERENT FILL-ORIGIN LEVEL: 0

LLC TOTAL     ACCESS:    1600027  HIT:    1498393  MISS:     101634  HIT %:     93.648  MISS %:    6.35202   MPKI: 2.03268
LLC LOAD      ACCESS:     988443  HIT:     956741  MISS:      31702  HIT %:    96.7927  MISS %:    3.20727   MPKI: 0.63404
LLC RFO       ACCESS:      51298  HIT:      40575  MISS:      10723  HIT %:    79.0967  MISS %:    20.9033   MPKI: 0.21446
LLC PREFETCH  ACCESS:     313104  HIT:     256247  MISS:      56857  HIT %:    81.8409  MISS %:    18.1591   MPKI: 1.13714
LLC WRITEBACK ACCESS:     173128  HIT:     173045  MISS:         83  HIT %:    99.9521  MISS %:  0.0479414   MPKI: 0.00166
LLC LOAD TRANSLATION ACCESS:      74054  HIT:      71785  MISS:       2269  HIT %:     96.936  MISS %:    3.06398   MPKI: 0.04538
LLC PREFETCH  REQUESTED:          0  ISSUED:          0  USEFUL:       3786  USELESS:      52668
LLC USEFUL LOAD PREFETCHES:       3786 PREFETCH ISSUED TO LOWER LEVEL:      56857  ACCURACY: 6.65881
LLC TIMELY PREFETCHES:       3786 LATE PREFETCHES: 0 DROPPED PREFETCHES: 0
LLC PREFETCHES SAME FILL-ORIGIN LEVEL: 0 DIFFERENT FILL-ORIGIN LEVEL: 0
LLC AVERAGE MISS LATENCY: 382.751 cycles
LLC RQ	ACCESS:    1113799	FORWARD:          0	MERGED:          0	TO_CACHE:    1113795
LLC WQ	ACCESS:     173128	FORWARD:          4	MERGED:          0	TO_CACHE:     173128
LLC PQ	ACCESS:     313104	FORWARD:          0	MERGED:          0	TO_CACHE:     313104

LLC Dense regions hint to LLC: 0

RAW hits: 780824
Loads Generated: 11458610
Loads sent to L1D: 10677788
Stores Generated: 5192923
Stores sent to L1D: 5192932
Major fault: 0 Minor fault: 5304
Allocated PAGES: 5304

stream: 
stream:times selected: 431536
stream:pref_filled: 73108
stream:pref_useful: 21367
stream:pref_late: 3576
stream:misses: 6021
stream:misses_by_poll: 0

CS: 
CS:times selected: 23908
CS:pref_filled: 16976
CS:pref_useful: 10094
CS:pref_late: 3224
CS:misses: 5212
CS:misses_by_poll: 101

CPLX: 
CPLX:times selected: 404286
CPLX:pref_filled: 29007
CPLX:pref_useful: 4233
CPLX:pref_late: 471
CPLX:misses: 33132
CPLX:misses_by_poll: 4

NL_L1: 
NL:times selected: 3404
NL:pref_filled: 1197
NL:pref_useful: 123
NL:pref_late: 32
NL:misses: 357
NL:misses_by_poll: 0

total selections: 863134
total_filled: 103357
total_useful: 30321
total_late: 7639
total_polluted: 105
total_misses_after_warmup: 576803
conflicts: 2497725
Degree Incremented Times: 0
Degree Decremented Times: 116782

L1 IP Table Write Accesses: 4313980
L1 IP Table Read Accesses: 1816255
L1 RST Write Accesses: 360772
L1 RST Read Accesses: 721544
L1 CSPT Write Accesses: 360772
L1 CSPT Read Accesses: 700750
L1 RR Filter Tag Write Accesses: 235767
L1 RR Filter Tag Read Accesses: 14717362
L1 IP Table Tag Write Accesses: 7299031
L1 IP Table Tag Read Accesses: 7299031
L1 RST Tag Write Accesses: 0
L1 RST Tag Read Accesses: 3486900
L1 RR Filter Write Accesses: 0
L1 RR Filter Read Accesses: 530809
test: 119917
L2 IP Table Read Accesses: 802631
L2 IP Table Write Accesses: 1135372
L2 IP Table Tag Read Accesses: 637402
L2 IP Table Tag Write Accesses: 637402

DRAM Statistics
 CHANNEL 0
 RQ ROW_BUFFER_HIT:      18763  ROW_BUFFER_MISS:      82784
 DBUS_CONGESTED:     122743
 WQ ROW_BUFFER_HIT:      15758  ROW_BUFFER_MISS:      41625  FULL:          0

 AVG_CONGESTED_CYCLE: 116
 All warmup complete: 2
Channel 0 Bank busy for read cycles: 0
Channel 0 Bank busy for write cycles: 0
Channel 0
Rank 0
0banks busy for read cycles: 83138350
0banks busy for write cycles: 22662
1banks busy for read cycles: 9204845
1banks busy for write cycles: 4393593
2banks busy for read cycles: 3097971
2banks busy for write cycles: 1709147
3banks busy for read cycles: 1262271
3banks busy for write cycles: 925744
4banks busy for read cycles: 610379
4banks busy for write cycles: 682753
5banks busy for read cycles: 274723
5banks busy for write cycles: 614488
6banks busy for read cycles: 142893
6banks busy for write cycles: 643482
7banks busy for read cycles: 105762
7banks busy for write cycles: 802184
8banks busy for read cycles: 495106
8banks busy for write cycles: 1535581

CPU 0 Branch Prediction Accuracy: 92.9857% MPKI: 13.0204 Average ROB Occupancy at Mispredict: 21.8184
Branch types
NOT_BRANCH: 40718329 81.4367%
BRANCH_DIRECT_JUMP: 460299 0.920598%
BRANCH_INDIRECT: 145929 0.291858%
BRANCH_CONDITIONAL: 6986158 13.9723%
BRANCH_DIRECT_CALL: 662481 1.32496%
BRANCH_INDIRECT_CALL: 164978 0.329956%
BRANCH_RETURN: 861501 1.723%
BRANCH_OTHER: 0 0%

@sumon_overall_L1D     30321      8467     72947    103357    471027    471200
@Sumon_Early_by_class_L1D     17422      7255      3469        28
@Sumon_Late_by_class_L1D      3319      3034       419        28

@Sumon_Early_by_cycle_L1D      7406      2716      5445      2038      1516      3677      1658      1576      1655      1840       616       178
@Sumon_Late_by_cycle_L1D      6129       631       241        59        30        17         0         0         0         0         0         0
@Sumon_Early_stream_L1D      3511      1849      2135      1412       951      2305      1198      1144      1133      1254       410       120
@Sumon_Early_CS_L1D      2988       196      2705       173       137       576       195       136        73        36        34         6
@Sumon_Early_CPLX_L1D       424       326       362       232       184       530       231       262       336       420       129        33
@Sumon_Late_stream_L1D      2660       393       188        44        23        11         0         0         0         0         0         0
@Sumon_Late_CS_L1D      2881       123        13         8         4         5         0         0         0         0         0         0
@Sumon_Late_CPLX_L1D       350        47        17         2         2         1         0         0         0         0         0         0
@sumon_overall_L2C     76266      8589    228270    304515    463848    463848
@Sumon_Early_by_class_L2C      1147       359       492         0
@Sumon_Late_by_class_L2C         0         0         0         0

@Sumon_Early_by_cycle_L2C     12639      8273      8900      5963      4314     11180      5452      3803      2740      3107      2028      7867
@Sumon_Late_by_cycle_L2C      5073      2454       873       126        40        23         0         0         0         0         0         0
@Sumon_Early_stream_L2C         0         0         0         0         0         0         0         0         1        15        95      1036
@Sumon_Early_CS_L2C         0         0         0         0         0         0         0         0         0         3        45       311
@Sumon_Early_CPLX_L2C         0         0         0         0         0         0         0         0         1         6        31       454
@Sumon_Late_stream_L2C         0         0         0         0         0         0         0         0         0         0         0         0
@Sumon_Late_CS_L2C         0         0         0         0         0         0         0         0         0         0         0         0
@Sumon_Late_CPLX_L2C         0         0         0         0         0         0         0         0         0         0         0         0
DRAM PAGES: 1048576
Allocated PAGES: 5304
