
*** ChampSim Multicore Out-of-Order Simulator ***

Warmup Instructions: 10000000
Simulation Instructions: 50000000
Number of CPUs: 1
LLC sets: 2048
LLC ways: 16
Off-chip DRAM Size: 4096 MB Channels: 1 Width: 64-bit Data Rate: 200 MT/s
CPU 0 runs traces/clientserver/server_021.champsimtrace.xz
.xz
CPU 0 Bimodal branch predictor
BTB has LRU replacement policy
ITLB has LRU replacement policy
DTLB has LRU replacement policy
STLB has LRU replacement policy
L1I has LRU replacement policy
IP Table Entries: 256
L1D has LRU replacement policy
IP_Table L2 entries: 256
L2C has LRU replacement policy
LLC has LRU replacement policy
Heartbeat CPU 0 instructions: 10000000 cycles: 3157466 heartbeat IPC: 3.1671 cumulative IPC: 3.1671 (Simulation time: 0 hr 10 min 4 sec) 

Warmup complete CPU 0 instructions: 10000004 cycles: 3157467 (Simulation time: 0 hr 10 min 4 sec) 

Heartbeat CPU 0 instructions: 20000000 cycles: 78586380 heartbeat IPC: 0.132575 cumulative IPC: 0.132575 (Simulation time: 0 hr 51 min 36 sec) 
Heartbeat CPU 0 instructions: 30000003 cycles: 153543368 heartbeat IPC: 0.13341 cumulative IPC: 0.132991 (Simulation time: 0 hr 59 min 7 sec) 
Heartbeat CPU 0 instructions: 40000000 cycles: 227067920 heartbeat IPC: 0.136009 cumulative IPC: 0.133982 (Simulation time: 1 hr 4 min 17 sec) 
Heartbeat CPU 0 instructions: 50000002 cycles: 301376338 heartbeat IPC: 0.134574 cumulative IPC: 0.13413 (Simulation time: 1 hr 34 min 51 sec) 
Heartbeat CPU 0 instructions: 60000001 cycles: 375538120 heartbeat IPC: 0.13484 cumulative IPC: 0.134271 (Simulation time: 2 hr 8 min 17 sec) 
Finished CPU 0 instructions: 50000001 cycles: 372380654 cumulative IPC: 0.134271 (Simulation time: 2 hr 8 min 17 sec) 

ChampSim completed all CPUs

Region of Interest Statistics

CPU 0 cumulative IPC: 0.134271 instructions: 50000001 cycles: 372380654
ITLB TOTAL     ACCESS:    9228939  HIT:    8846650  MISS:     382289  HIT %:    95.8577  MISS %:    4.14229   MPKI: 7.64578
ITLB LOAD TRANSLATION ACCESS:    9228939  HIT:    8846650  MISS:     382289  HIT %:    95.8577  MISS %:    4.14229   MPKI: 7.64578
ITLB PREFETCH  REQUESTED:          0  ISSUED:          0  USEFUL:          0  USELESS:          0
ITLB USEFUL LOAD PREFETCHES:          0 PREFETCH ISSUED TO LOWER LEVEL:          0  ACCURACY: -nan
ITLB TIMELY PREFETCHES:          0 LATE PREFETCHES: 0 DROPPED PREFETCHES: 0
ITLB PREFETCHES SAME FILL-ORIGIN LEVEL: 0 DIFFERENT FILL-ORIGIN LEVEL: 0
ITLB AVERAGE MISS LATENCY: 9.63959 cycles
ITLB RQ	ACCESS:   10845246	FORWARD:          0	MERGED:    1493731	TO_CACHE:    9351515

DTLB TOTAL     ACCESS:   11951578  HIT:   11550481  MISS:     401097  HIT %:     96.644  MISS %:    3.35602   MPKI: 8.02194
DTLB LOAD TRANSLATION ACCESS:   11951578  HIT:   11550481  MISS:     401097  HIT %:     96.644  MISS %:    3.35602   MPKI: 8.02194
DTLB PREFETCH  REQUESTED:          0  ISSUED:          0  USEFUL:          0  USELESS:          0
DTLB USEFUL LOAD PREFETCHES:          0 PREFETCH ISSUED TO LOWER LEVEL:          0  ACCURACY: -nan
DTLB TIMELY PREFETCHES:          0 LATE PREFETCHES: 0 DROPPED PREFETCHES: 0
DTLB PREFETCHES SAME FILL-ORIGIN LEVEL: 0 DIFFERENT FILL-ORIGIN LEVEL: 0
DTLB AVERAGE MISS LATENCY: 27.4303 cycles
DTLB RQ	ACCESS:   16784693	FORWARD:          0	MERGED:    4773284	TO_CACHE:   12011409

STLB TOTAL     ACCESS:    1465209  HIT:    1445381  MISS:      19828  HIT %:    98.6467  MISS %:    1.35325   MPKI: 0.39656
STLB LOAD TRANSLATION ACCESS:     783386  HIT:     763558  MISS:      19828  HIT %:    97.4689  MISS %:    2.53106   MPKI: 0.39656
STLB TRANSLATION FROM L1D PREFETCHER ACCESS:     681823  HIT:     681823  MISS:          0  HIT %:        100  MISS %:          0   MPKI: 0
STLB PREFETCH  REQUESTED:          0  ISSUED:          0  USEFUL:          0  USELESS:          0
STLB USEFUL LOAD PREFETCHES:          0 PREFETCH ISSUED TO LOWER LEVEL:          0  ACCURACY: -nan
STLB TIMELY PREFETCHES:          0 LATE PREFETCHES: 0 DROPPED PREFETCHES: 0
STLB PREFETCHES SAME FILL-ORIGIN LEVEL: 0 DIFFERENT FILL-ORIGIN LEVEL: 0
STLB AVERAGE MISS LATENCY: 384.677 cycles
STLB RQ	ACCESS:    1598333	FORWARD:          0	MERGED:     133124	TO_CACHE:    1465209

STLB Hit, L1D data hit: 0
STLB Hit, L2C data hit: 0
STLB Hit, LLC data hit: 0
STLB Hit, LLC data miss: 0
STLB STLB hints to L2: 0
L1D TOTAL     ACCESS:   13788511  HIT:   11852813  MISS:    1935698  HIT %:    85.9615  MISS %:    14.0385   MPKI: 38.714
L1D LOAD      ACCESS:    6975857  HIT:    6429790  MISS:     546067  HIT %:     92.172  MISS %:    7.82796   MPKI: 10.9213
L1D RFO       ACCESS:    6046960  HIT:    5063161  MISS:     983799  HIT %:    83.7307  MISS %:    16.2693   MPKI: 19.676
L1D PREFETCH  ACCESS:     765694  HIT:     359862  MISS:     405832  HIT %:    46.9981  MISS %:    53.0019   MPKI: 8.11664
L1D PREFETCH  REQUESTED:    1647458  ISSUED:    1629930  USEFUL:      47681  USELESS:     358077
L1D USEFUL LOAD PREFETCHES:      47681 PREFETCH ISSUED TO LOWER LEVEL:     405981  ACCURACY: 11.7446
L1D TIMELY PREFETCHES:      47681 LATE PREFETCHES: 1001147 DROPPED PREFETCHES: 0
L1D PREFETCHES SAME FILL-ORIGIN LEVEL: 405981 DIFFERENT FILL-ORIGIN LEVEL: 0
L1D AVERAGE MISS LATENCY: 16701.2 cycles
L1D RQ	ACCESS:   11502741	FORWARD:          0	MERGED:    3355138	TO_CACHE:    8023354
L1D WQ	ACCESS:    8825676	FORWARD:     124269	MERGED:      64337	TO_CACHE:    8761339
L1D PQ	ACCESS:     814983	FORWARD:          0	MERGED:         16	TO_CACHE:     814947

L1D UNIQUE REGIONS ACCESSED: 0
L1D REGIONS CONFLICTS: 0
L1D Cross Page Prefetch Requests: 0
L1D Same Page Prefetch Requests: 1056311
L1D ROI Sum of L1D PQ occupancy: 111101015
L1D PREFETCHES PUSHED FROM L2C: 0
L1I TOTAL     ACCESS:   10112255  HIT:    7674667  MISS:    2437588  HIT %:    75.8947  MISS %:    24.1053   MPKI: 48.7518
L1I LOAD      ACCESS:   10112255  HIT:    7674667  MISS:    2437588  HIT %:    75.8947  MISS %:    24.1053   MPKI: 48.7518
L1I PREFETCH  REQUESTED:          0  ISSUED:          0  USEFUL:          0  USELESS:          0
L1I USEFUL LOAD PREFETCHES:          0 PREFETCH ISSUED TO LOWER LEVEL:          0  ACCURACY: -nan
L1I TIMELY PREFETCHES:          0 LATE PREFETCHES: 0 DROPPED PREFETCHES: 0
L1I PREFETCHES SAME FILL-ORIGIN LEVEL: 0 DIFFERENT FILL-ORIGIN LEVEL: 0
L1I AVERAGE MISS LATENCY: 18.834 cycles
L1I RQ	ACCESS:   14763979	FORWARD:          0	MERGED:    3918733	TO_CACHE:   10845246

BTB TOTAL     ACCESS:    5338422  HIT:    5079378  MISS:     259044  HIT %:    95.1476  MISS %:    4.85245   MPKI: 5.18088
BTB BRANCH_DIRECT_JUMP	ACCESS:     443771  HIT:     441817  MISS:       1954
BTB BRANCH_INDIRECT	ACCESS:      50297  HIT:      50199  MISS:         98
BTB BRANCH_CONDITIONAL	ACCESS:    3011244  HIT:    3005231  MISS:       6013
BTB BRANCH_DIRECT_CALL	ACCESS:     756237  HIT:     752212  MISS:       4025
BTB BRANCH_INDIRECT_CALL	ACCESS:     160309  HIT:     130600  MISS:      29709
BTB BRANCH_RETURN	ACCESS:     916564  HIT:     699319  MISS:     217245
BTB BRANCH_OTHER ACCESS:          0  HIT:          0  MISS:          0

L2C TOTAL     ACCESS:    5858134  HIT:    4002759  MISS:    1855375  HIT %:    68.3282  MISS %:    31.6718   MPKI: 37.1075
L2C LOAD      ACCESS:    2983636  HIT:    2540970  MISS:     442666  HIT %:    85.1635  MISS %:    14.8365   MPKI: 8.85332
L2C DATA LOAD MPKI: 6.05312
L2C INSTRUCTION LOAD MPKI: 2.8002
L2C RFO       ACCESS:     983648  HIT:      32725  MISS:     950923  HIT %:     3.3269  MISS %:    96.6731   MPKI: 19.0185
L2C PREFETCH  ACCESS:     706009  HIT:     253923  MISS:     452086  HIT %:     35.966  MISS %:     64.034   MPKI: 9.04172
L2C DATA PREFETCH MPKI: 9.04172
L2C INSTRUCTION PREFETCH MPKI: 0
L2C WRITEBACK ACCESS:    1163514  HIT:    1162521  MISS:        993  HIT %:    99.9147  MISS %:  0.0853449   MPKI: 0.01986
L2C LOAD TRANSLATION ACCESS:      21327  HIT:      12620  MISS:       8707  HIT %:    59.1738  MISS %:    40.8262   MPKI: 0.17414
L2C PREFETCH  REQUESTED:     332211  ISSUED:     332211  USEFUL:      51562  USELESS:     400675
L2C USEFUL LOAD PREFETCHES:      51562 PREFETCH ISSUED TO LOWER LEVEL:     458794  ACCURACY: 11.2386
L2C TIMELY PREFETCHES:      51562 LATE PREFETCHES: 6707 DROPPED PREFETCHES: 0
L2C PREFETCHES SAME FILL-ORIGIN LEVEL: 141658 DIFFERENT FILL-ORIGIN LEVEL: 0
L2C AVERAGE MISS LATENCY: 2158.62 cycles
L2C RQ	ACCESS:    3988644	FORWARD:          0	MERGED:          0	TO_CACHE:    3988623
L2C WQ	ACCESS:    1163514	FORWARD:         24	MERGED:          0	TO_CACHE:    1163514
L2C PQ	ACCESS:     738192	FORWARD:          0	MERGED:       4570	TO_CACHE:     733619

L2C Instructions Evicting Data 130939
L2C Translations Evicting Data 8023
L2C Data Evicting Data 1566569
L2C Instructions Evicting Instructions 8361
L2C Translations Evicting Instructions 642
L2C Data Evicting Instructions 131121
L2C Instructions Evicting Translations 710
L2C Translations Evicting Translations 42
L2C Data Evicting Translations 7975
L2C Dense regions hint from L2: 0
PSCL5 TOTAL     ACCESS:      19828  HIT:      19828  MISS:          0  HIT %:        100  MISS %:          0   MPKI: 0
PSCL5 LOAD TRANSLATION ACCESS:      19828  HIT:      19828  MISS:          0  HIT %:        100  MISS %:          0   MPKI: 0
PSCL5 PREFETCH  REQUESTED:          0  ISSUED:          0  USEFUL:          0  USELESS:          0
PSCL5 USEFUL LOAD PREFETCHES:          0 PREFETCH ISSUED TO LOWER LEVEL:          0  ACCURACY: -nan
PSCL5 TIMELY PREFETCHES:          0 LATE PREFETCHES: 0 DROPPED PREFETCHES: 0
PSCL5 PREFETCHES SAME FILL-ORIGIN LEVEL: 0 DIFFERENT FILL-ORIGIN LEVEL: 0

PSCL4 TOTAL     ACCESS:      19290  HIT:      19242  MISS:         48  HIT %:    99.7512  MISS %:   0.248834   MPKI: 0.00096
PSCL4 LOAD TRANSLATION ACCESS:      19290  HIT:      19242  MISS:         48  HIT %:    99.7512  MISS %:   0.248834   MPKI: 0.00096
PSCL4 PREFETCH  REQUESTED:          0  ISSUED:          0  USEFUL:          0  USELESS:          0
PSCL4 USEFUL LOAD PREFETCHES:          0 PREFETCH ISSUED TO LOWER LEVEL:          0  ACCURACY: -nan
PSCL4 TIMELY PREFETCHES:          0 LATE PREFETCHES: 0 DROPPED PREFETCHES: 0
PSCL4 PREFETCHES SAME FILL-ORIGIN LEVEL: 0 DIFFERENT FILL-ORIGIN LEVEL: 0

PSCL3 TOTAL     ACCESS:      19524  HIT:      19476  MISS:         48  HIT %:    99.7541  MISS %:   0.245851   MPKI: 0.00096
PSCL3 LOAD TRANSLATION ACCESS:      19524  HIT:      19476  MISS:         48  HIT %:    99.7541  MISS %:   0.245851   MPKI: 0.00096
PSCL3 PREFETCH  REQUESTED:          0  ISSUED:          0  USEFUL:          0  USELESS:          0
PSCL3 USEFUL LOAD PREFETCHES:          0 PREFETCH ISSUED TO LOWER LEVEL:          0  ACCURACY: -nan
PSCL3 TIMELY PREFETCHES:          0 LATE PREFETCHES: 0 DROPPED PREFETCHES: 0
PSCL3 PREFETCHES SAME FILL-ORIGIN LEVEL: 0 DIFFERENT FILL-ORIGIN LEVEL: 0

PSCL2 TOTAL     ACCESS:      19828  HIT:      18400  MISS:       1428  HIT %:    92.7981  MISS %:    7.20194   MPKI: 0.02856
PSCL2 LOAD TRANSLATION ACCESS:      19828  HIT:      18400  MISS:       1428  HIT %:    92.7981  MISS %:    7.20194   MPKI: 0.02856
PSCL2 PREFETCH  REQUESTED:          0  ISSUED:          0  USEFUL:          0  USELESS:          0
PSCL2 USEFUL LOAD PREFETCHES:          0 PREFETCH ISSUED TO LOWER LEVEL:          0  ACCURACY: -nan
PSCL2 TIMELY PREFETCHES:          0 LATE PREFETCHES: 0 DROPPED PREFETCHES: 0
PSCL2 PREFETCHES SAME FILL-ORIGIN LEVEL: 0 DIFFERENT FILL-ORIGIN LEVEL: 0

LLC TOTAL     ACCESS:    2958820  HIT:    1676803  MISS:    1282017  HIT %:    56.6713  MISS %:    43.3287   MPKI: 25.6403
LLC LOAD      ACCESS:     436317  HIT:     302638  MISS:     133679  HIT %:     69.362  MISS %:     30.638   MPKI: 2.67358
LLC RFO       ACCESS:     950563  HIT:     146822  MISS:     803741  HIT %:    15.4458  MISS %:    84.5542   MPKI: 16.0748
LLC PREFETCH  ACCESS:     458791  HIT:     121559  MISS:     337232  HIT %:    26.4955  MISS %:    73.5045   MPKI: 6.74464
LLC WRITEBACK ACCESS:    1104442  HIT:    1103425  MISS:       1017  HIT %:    99.9079  MISS %:  0.0920827   MPKI: 0.02034
LLC LOAD TRANSLATION ACCESS:       8707  HIT:       2359  MISS:       6348  HIT %:    27.0931  MISS %:    72.9069   MPKI: 0.12696
LLC PREFETCH  REQUESTED:          0  ISSUED:          0  USEFUL:       7509  USELESS:     331135
LLC USEFUL LOAD PREFETCHES:       7509 PREFETCH ISSUED TO LOWER LEVEL:     337233  ACCURACY: 2.22665
LLC TIMELY PREFETCHES:       7509 LATE PREFETCHES: 0 DROPPED PREFETCHES: 0
LLC PREFETCHES SAME FILL-ORIGIN LEVEL: 0 DIFFERENT FILL-ORIGIN LEVEL: 0
LLC AVERAGE MISS LATENCY: 3082.2 cycles
LLC RQ	ACCESS:    1395601	FORWARD:          0	MERGED:          0	TO_CACHE:    1395599
LLC WQ	ACCESS:    1104442	FORWARD:          4	MERGED:          0	TO_CACHE:    1104442
LLC PQ	ACCESS:     458794	FORWARD:          0	MERGED:          0	TO_CACHE:     458792

LLC Dense regions hint to LLC: 0

RAW hits: 917091
Loads Generated: 12419836
Loads sent to L1D: 11502741
Stores Generated: 8825673
Stores sent to L1D: 8825676
Major fault: 0 Minor fault: 14275
Allocated PAGES: 14275

stream: 
stream:times selected: 2341417
stream:pref_filled: 487113
stream:pref_useful: 111846
stream:pref_late: 255573
stream:misses: 16814
stream:misses_by_poll: 0

CS: 
CS:times selected: 2057037
CS:pref_filled: 5642
CS:pref_useful: 1562
CS:pref_late: 4063
CS:misses: 143443
CS:misses_by_poll: 3

CPLX: 
CPLX:times selected: 1741452
CPLX:pref_filled: 33087
CPLX:pref_useful: 2248
CPLX:pref_late: 743
CPLX:misses: 926292
CPLX:misses_by_poll: 70

NL_L1: 
NL:times selected: 911
NL:pref_filled: 314
NL:pref_useful: 7
NL:pref_late: 9
NL:misses: 419
NL:misses_by_poll: 0

total selections: 6140817
total_filled: 405832
total_useful: 47681
total_late: 264055
total_polluted: 73
total_misses_after_warmup: 1593565
conflicts: 2683035
Degree Incremented Times: 13
Degree Decremented Times: 181314

L1 IP Table Write Accesses: 5172603
L1 IP Table Read Accesses: 2489568
L1 RST Write Accesses: 1942600
L1 RST Read Accesses: 3885200
L1 CSPT Write Accesses: 1942600
L1 CSPT Read Accesses: 3635858
L1 RR Filter Tag Write Accesses: 832511
L1 RR Filter Tag Read Accesses: 213187509
L1 IP Table Tag Write Accesses: 8023355
L1 IP Table Tag Read Accesses: 8023355
L1 RST Tag Write Accesses: 0
L1 RST Tag Read Accesses: 17560388
L1 RR Filter Write Accesses: 0
L1 RR Filter Read Accesses: 6928145
test: 134726
L2 IP Table Read Accesses: 1554490
L2 IP Table Write Accesses: 1615281
L2 IP Table Tag Read Accesses: 944897
L2 IP Table Tag Write Accesses: 944897

DRAM Statistics
 CHANNEL 0
 RQ ROW_BUFFER_HIT:     349882  ROW_BUFFER_MISS:     930827
 DBUS_CONGESTED:    2221683
 WQ ROW_BUFFER_HIT:     142667  ROW_BUFFER_MISS:     730931  FULL:          0

 AVG_CONGESTED_CYCLE: 146
 All warmup complete: 2
Channel 0 Bank busy for read cycles: 0
Channel 0 Bank busy for write cycles: 0
Channel 0
Rank 0
0banks busy for read cycles: 16303535
0banks busy for write cycles: 10325
1banks busy for read cycles: 17604518
1banks busy for write cycles: 2222226
2banks busy for read cycles: 11545958
2banks busy for write cycles: 1864400
3banks busy for read cycles: 7192892
3banks busy for write cycles: 1810230
4banks busy for read cycles: 5365341
4banks busy for write cycles: 1922739
5banks busy for read cycles: 5319002
5banks busy for write cycles: 2107659
6banks busy for read cycles: 6415211
6banks busy for write cycles: 2724362
7banks busy for read cycles: 10187547
7banks busy for write cycles: 6893921
8banks busy for read cycles: 144848896
8banks busy for write cycles: 128041893

CPU 0 Branch Prediction Accuracy: 96.6284% MPKI: 5.54662 Average ROB Occupancy at Mispredict: 52.0852
Branch types
NOT_BRANCH: 41774097 83.5482%
BRANCH_DIRECT_JUMP: 443771 0.887542%
BRANCH_INDIRECT: 50297 0.100594%
BRANCH_CONDITIONAL: 5898380 11.7968%
BRANCH_DIRECT_CALL: 756237 1.51247%
BRANCH_INDIRECT_CALL: 160309 0.320618%
BRANCH_RETURN: 916564 1.83313%
BRANCH_OTHER: 0 0%

@sumon_overall_L1D     47681   1001147    358077    405832   1629930   1647458
@Sumon_Early_by_class_L1D     44553       769      2045         9
@Sumon_Late_by_class_L1D    254852      4054       716         9

@Sumon_Early_by_cycle_L1D     27296      2823      2463      3227      2014      2852      1339       449       299       964      2725      1230
@Sumon_Late_by_cycle_L1D     28359      8605     13371     15398     15808     74865     87707     18598       583         3         0         0
@Sumon_Early_stream_L1D     26555      2599      2257      3068      1892      2551       924       143       137       879      2393      1155
@Sumon_Early_CS_L1D       435        77        58        70        38        50        15         2         0         4        20         0
@Sumon_Early_CPLX_L1D       204        94       120        71        79       230       387       294       162        73       265        66
@Sumon_Late_stream_L1D     26801      7492     11928     14704     15313     73313     86468     18256       574         3         0         0
@Sumon_Late_CS_L1D       519       430       513       357       293       942       772       222         6         0         0         0
@Sumon_Late_CPLX_L1D        86       130       130        80        50       127        82        30         1         0         0         0
@sumon_overall_L2C     51562      6707    400675    452086    332211    332211
@Sumon_Early_by_class_L2C      2503        12       653         0
@Sumon_Late_by_class_L2C         0        19         0         0

@Sumon_Early_by_cycle_L2C      2742      4371      5282      2970      1443     12570      4123       623      1449      2829      2202     10958
@Sumon_Late_by_cycle_L2C      2831      3126       345       237        39        56        70         3         0         0         0         0
@Sumon_Early_stream_L2C         0         0         0         0         0         0         4         9        25       101       187      2177
@Sumon_Early_CS_L2C         0         0         0         0         0         0         1         0         0         2         3         6
@Sumon_Early_CPLX_L2C         0         0         0         0         0         0         5        35       106        43        24       440
@Sumon_Late_stream_L2C         0         0         0         0         0         0         0         0         0         0         0         0
@Sumon_Late_CS_L2C         0         0         1         0         1         5        10         2         0         0         0         0
@Sumon_Late_CPLX_L2C         0         0         0         0         0         0         0         0         0         0         0         0
DRAM PAGES: 1048576
Allocated PAGES: 14275
