
*** ChampSim Multicore Out-of-Order Simulator ***

Warmup Instructions: 10000000
Simulation Instructions: 50000000
Number of CPUs: 1
LLC sets: 2048
LLC ways: 16
Off-chip DRAM Size: 4096 MB Channels: 1 Width: 64-bit Data Rate: 6400 MT/s
CPU 0 runs traces/SPEC2017/603.bwaves_s-2931B.champsimtrace.xz
.xz
CPU 0 Bimodal branch predictor
BTB has LRU replacement policy
ITLB has LRU replacement policy
DTLB has LRU replacement policy
STLB has LRU replacement policy
L1I has LRU replacement policy
IP Table Entries: 256
L1D has LRU replacement policy
IP_Table L2 entries: 256
L2C has LRU replacement policy
Initialize SRRIP state
Heartbeat CPU 0 instructions: 10000003 cycles: 2946928 heartbeat IPC: 3.39337 cumulative IPC: 3.39337 (Simulation time: 0 hr 10 min 40 sec) 

Warmup complete CPU 0 instructions: 10000003 cycles: 2946928 (Simulation time: 0 hr 10 min 40 sec) 

Heartbeat CPU 0 instructions: 20000001 cycles: 11714746 heartbeat IPC: 1.14053 cumulative IPC: 1.14053 (Simulation time: 0 hr 19 min 43 sec) 
Heartbeat CPU 0 instructions: 30000001 cycles: 20480351 heartbeat IPC: 1.14082 cumulative IPC: 1.14068 (Simulation time: 0 hr 28 min 55 sec) 
Heartbeat CPU 0 instructions: 40000003 cycles: 29246530 heartbeat IPC: 1.14075 cumulative IPC: 1.1407 (Simulation time: 0 hr 38 min 2 sec) 
Heartbeat CPU 0 instructions: 50000003 cycles: 38011928 heartbeat IPC: 1.14085 cumulative IPC: 1.14074 (Simulation time: 0 hr 47 min 7 sec) 
Heartbeat CPU 0 instructions: 60000000 cycles: 46779901 heartbeat IPC: 1.14051 cumulative IPC: 1.14069 (Simulation time: 0 hr 54 min 59 sec) 
Finished CPU 0 instructions: 50000000 cycles: 43832976 cumulative IPC: 1.14069 (Simulation time: 0 hr 54 min 59 sec) 

ChampSim completed all CPUs

Region of Interest Statistics

CPU 0 cumulative IPC: 1.14069 instructions: 50000000 cycles: 43832976
ITLB TOTAL     ACCESS:    6031457  HIT:    6031457  MISS:          0  HIT %:        100  MISS %:          0   MPKI: 0
ITLB LOAD TRANSLATION ACCESS:    6031457  HIT:    6031457  MISS:          0  HIT %:        100  MISS %:          0   MPKI: 0
ITLB PREFETCH  REQUESTED:          0  ISSUED:          0  USEFUL:          0  USELESS:          0
ITLB USEFUL LOAD PREFETCHES:          0 PREFETCH ISSUED TO LOWER LEVEL:          0  ACCURACY: -nan
ITLB TIMELY PREFETCHES:          0 LATE PREFETCHES: 0 DROPPED PREFETCHES: 0
ITLB PREFETCHES SAME FILL-ORIGIN LEVEL: 0 DIFFERENT FILL-ORIGIN LEVEL: 0
ITLB AVERAGE MISS LATENCY: -nan cycles
ITLB RQ	ACCESS:    7011719	FORWARD:          0	MERGED:     980262	TO_CACHE:    6031457

ITLB_Dead_block_count 0 0
ITLB_inaccurate_prefetch_count 0 0
Interactions: positive negative neutral
ITLB_interactions 0 0 0
ITLB_positive 0 0 0
ITLB_negative 0 0 0
ITLB_neutral 0 0 0 0 0 0
DTLB TOTAL     ACCESS:   12707400  HIT:   12590498  MISS:     116902  HIT %:      99.08  MISS %:   0.919952   MPKI: 2.33804
DTLB LOAD TRANSLATION ACCESS:   12707400  HIT:   12590498  MISS:     116902  HIT %:      99.08  MISS %:   0.919952   MPKI: 2.33804
DTLB PREFETCH  REQUESTED:          0  ISSUED:          0  USEFUL:          0  USELESS:          0
DTLB USEFUL LOAD PREFETCHES:          0 PREFETCH ISSUED TO LOWER LEVEL:          0  ACCURACY: -nan
DTLB TIMELY PREFETCHES:          0 LATE PREFETCHES: 0 DROPPED PREFETCHES: 0
DTLB PREFETCHES SAME FILL-ORIGIN LEVEL: 0 DIFFERENT FILL-ORIGIN LEVEL: 0
DTLB AVERAGE MISS LATENCY: 42.1026 cycles
DTLB RQ	ACCESS:   18843075	FORWARD:          0	MERGED:    6130603	TO_CACHE:   12712472

DTLB_Dead_block_count 116898 4
DTLB_inaccurate_prefetch_count 0 0
Interactions: positive negative neutral
DTLB_interactions 0 0 0
DTLB_positive 0 0 0
DTLB_negative 0 0 0
DTLB_neutral 0 0 0 0 0 0
STLB TOTAL     ACCESS:     599938  HIT:     589294  MISS:      10644  HIT %:    98.2258  MISS %:    1.77418   MPKI: 0.21288
STLB LOAD TRANSLATION ACCESS:     116902  HIT:     106258  MISS:      10644  HIT %:    90.8949  MISS %:    9.10506   MPKI: 0.21288
STLB TRANSLATION FROM L1D PREFETCHER ACCESS:     483036  HIT:     483036  MISS:          0  HIT %:        100  MISS %:          0   MPKI: 0
STLB PREFETCH  REQUESTED:          0  ISSUED:          0  USEFUL:          0  USELESS:          0
STLB USEFUL LOAD PREFETCHES:          0 PREFETCH ISSUED TO LOWER LEVEL:          0  ACCURACY: -nan
STLB TIMELY PREFETCHES:          0 LATE PREFETCHES: 0 DROPPED PREFETCHES: 0
STLB PREFETCHES SAME FILL-ORIGIN LEVEL: 0 DIFFERENT FILL-ORIGIN LEVEL: 0
STLB AVERAGE MISS LATENCY: 355.34 cycles
STLB RQ	ACCESS:    2634203	FORWARD:          0	MERGED:    2034265	TO_CACHE:     599938

STLB_Dead_block_count 10640 4
STLB_inaccurate_prefetch_count 0 0
Interactions: positive negative neutral
STLB_interactions 0 0 0
STLB_positive 0 0 0
STLB_negative 0 0 0
STLB_neutral 0 0 0 0 0 0
STLB Hit, L1D data hit: 0
STLB Hit, L2C data hit: 0
STLB Hit, LLC data hit: 0
STLB Hit, LLC data miss: 0
STLB STLB hints to L2: 0
L1D TOTAL     ACCESS:   20652941  HIT:   19793258  MISS:     859683  HIT %:    95.8375  MISS %:    4.16252   MPKI: 17.1937
L1D LOAD      ACCESS:    9679460  HIT:    9639844  MISS:      39616  HIT %:    99.5907  MISS %:   0.409279   MPKI: 0.79232
L1D RFO       ACCESS:    8456181  HIT:    8137483  MISS:     318698  HIT %:    96.2312  MISS %:    3.76882   MPKI: 6.37396
L1D PREFETCH  ACCESS:    2517300  HIT:    2015931  MISS:     501369  HIT %:    80.0831  MISS %:    19.9169   MPKI: 10.0274
L1D PREFETCH  REQUESTED:    5095075  ISSUED:    5034602  USEFUL:     498888  USELESS:       2483
L1D USEFUL LOAD PREFETCHES:     498888 PREFETCH ISSUED TO LOWER LEVEL:     509239  ACCURACY: 97.9674
L1D TIMELY PREFETCHES:     498888 LATE PREFETCHES: 0 DROPPED PREFETCHES: 0
L1D PREFETCHES SAME FILL-ORIGIN LEVEL: 509239 DIFFERENT FILL-ORIGIN LEVEL: 0
L1D AVERAGE MISS LATENCY: 145.496 cycles
L1D RQ	ACCESS:   14467696	FORWARD:          0	MERGED:    4735718	TO_CACHE:    9682808
L1D WQ	ACCESS:    9162265	FORWARD:      49170	MERGED:       1998	TO_CACHE:    9160267
L1D PQ	ACCESS:    2517301	FORWARD:          0	MERGED:          0	TO_CACHE:    2517301

L1D_Dead_block_count 0 39616
L1D_inaccurate_prefetch_count 0 501369
Interactions: positive negative neutral
L1D_interactions 0 0 503697
L1D_positive 0 0 0
L1D_negative 0 0 0
L1D_neutral 501214 2328 0 0 0 155
L1D UNIQUE REGIONS ACCESSED: 0
L1D REGIONS CONFLICTS: 0
L1D Cross Page Prefetch Requests: 0
L1D Same Page Prefetch Requests: 3041288
L1D ROI Sum of L1D PQ occupancy: 37296175
L1D PREFETCHES PUSHED FROM L2C: 0
L1I TOTAL     ACCESS:    7011714  HIT:    7011707  MISS:          7  HIT %:    99.9999  MISS %: 9.98329e-05   MPKI: 0.00014
L1I LOAD      ACCESS:    7011714  HIT:    7011707  MISS:          7  HIT %:    99.9999  MISS %: 9.98329e-05   MPKI: 0.00014
L1I PREFETCH  REQUESTED:          0  ISSUED:          0  USEFUL:          0  USELESS:          0
L1I USEFUL LOAD PREFETCHES:          0 PREFETCH ISSUED TO LOWER LEVEL:          0  ACCURACY: -nan
L1I TIMELY PREFETCHES:          0 LATE PREFETCHES: 0 DROPPED PREFETCHES: 0
L1I PREFETCHES SAME FILL-ORIGIN LEVEL: 0 DIFFERENT FILL-ORIGIN LEVEL: 0
L1I AVERAGE MISS LATENCY: 214 cycles
L1I RQ	ACCESS:   10107089	FORWARD:          0	MERGED:    3095370	TO_CACHE:    7011719

L1I_Dead_block_count 3 4
L1I_inaccurate_prefetch_count 0 0
Interactions: positive negative neutral
L1I_interactions 0 0 0
L1I_positive 0 0 0
L1I_negative 0 0 0
L1I_neutral 0 0 0 0 0 0
BTB TOTAL     ACCESS:     421996  HIT:     421991  MISS:          5  HIT %:    99.9988  MISS %: 0.00118485   MPKI: 0.0001
BTB BRANCH_DIRECT_JUMP	ACCESS:          0  HIT:          0  MISS:          0
BTB BRANCH_INDIRECT	ACCESS:          0  HIT:          0  MISS:          0
BTB BRANCH_CONDITIONAL	ACCESS:     421996  HIT:     421991  MISS:          5
BTB BRANCH_DIRECT_CALL	ACCESS:          0  HIT:          0  MISS:          0
BTB BRANCH_INDIRECT_CALL	ACCESS:          0  HIT:          0  MISS:          0
BTB BRANCH_RETURN	ACCESS:          0  HIT:          0  MISS:          0
BTB BRANCH_OTHER ACCESS:          0  HIT:          0  MISS:          0

L2C TOTAL     ACCESS:    3342720  HIT:    2600365  MISS:     742355  HIT %:    77.7919  MISS %:    22.2081   MPKI: 14.8471
L2C LOAD      ACCESS:      39513  HIT:      31956  MISS:       7557  HIT %:    80.8746  MISS %:    19.1254   MPKI: 0.15114
L2C DATA LOAD MPKI: 0.151
L2C INSTRUCTION LOAD MPKI: 0.00014
L2C RFO       ACCESS:     306700  HIT:       9006  MISS:     297694  HIT %:    2.93642  MISS %:    97.0636   MPKI: 5.95388
L2C PREFETCH  ACCESS:    2662548  HIT:    2226839  MISS:     435709  HIT %:    83.6356  MISS %:    16.3644   MPKI: 8.71418
L2C DATA PREFETCH MPKI: 8.71418
L2C INSTRUCTION PREFETCH MPKI: 0
L2C WRITEBACK ACCESS:     323311  HIT:     323281  MISS:         30  HIT %:    99.9907  MISS %: 0.00927899   MPKI: 0.0006
L2C LOAD TRANSLATION ACCESS:      10648  HIT:       9283  MISS:       1365  HIT %:    87.1807  MISS %:    12.8193   MPKI: 0.0273
L2C PREFETCH  REQUESTED:    2637784  ISSUED:    2583760  USEFUL:      17713  USELESS:     416600
L2C USEFUL LOAD PREFETCHES:      17713 PREFETCH ISSUED TO LOWER LEVEL:     435711  ACCURACY: 4.06531
L2C TIMELY PREFETCHES:      17713 LATE PREFETCHES: 2 DROPPED PREFETCHES: 0
L2C PREFETCHES SAME FILL-ORIGIN LEVEL: 389967 DIFFERENT FILL-ORIGIN LEVEL: 0
L2C AVERAGE MISS LATENCY: 260.68 cycles
L2C RQ	ACCESS:     368971	FORWARD:          0	MERGED:          0	TO_CACHE:     356863
L2C WQ	ACCESS:     323311	FORWARD:      12108	MERGED:          0	TO_CACHE:     323311
L2C PQ	ACCESS:    3085129	FORWARD:          0	MERGED:     420456	TO_CACHE:    2664673

L2C_Dead_block_count 270905 35711
L2C_inaccurate_prefetch_count 374824 60887
Interactions: positive negative neutral
L2C_interactions 54822 59870 446056
L2C_positive 17718 10205 26899
L2C_negative 17948 15562 26360
L2C_neutral 4812 2238 103682 97034 226834 11456
L2C Instructions Evicting Data 7
L2C Translations Evicting Data 1365
L2C Data Evicting Data 739581
L2C Instructions Evicting Instructions 0
L2C Translations Evicting Instructions 0
L2C Data Evicting Instructions 7
L2C Instructions Evicting Translations 0
L2C Translations Evicting Translations 0
L2C Data Evicting Translations 1365
L2C Dense regions hint from L2: 0
PSCL5 TOTAL     ACCESS:      10644  HIT:      10644  MISS:          0  HIT %:        100  MISS %:          0   MPKI: 0
PSCL5 LOAD TRANSLATION ACCESS:      10644  HIT:      10644  MISS:          0  HIT %:        100  MISS %:          0   MPKI: 0
PSCL5 PREFETCH  REQUESTED:          0  ISSUED:          0  USEFUL:          0  USELESS:          0
PSCL5 USEFUL LOAD PREFETCHES:          0 PREFETCH ISSUED TO LOWER LEVEL:          0  ACCURACY: -nan
PSCL5 TIMELY PREFETCHES:          0 LATE PREFETCHES: 0 DROPPED PREFETCHES: 0
PSCL5 PREFETCHES SAME FILL-ORIGIN LEVEL: 0 DIFFERENT FILL-ORIGIN LEVEL: 0

PSCL5_Dead_block_count 0 0
PSCL5_inaccurate_prefetch_count 0 0
Interactions: positive negative neutral
PSCL5_interactions 0 0 0
PSCL5_positive 0 0 0
PSCL5_negative 0 0 0
PSCL5_neutral 0 0 0 0 0 0
PSCL4 TOTAL     ACCESS:      10644  HIT:      10644  MISS:          0  HIT %:        100  MISS %:          0   MPKI: 0
PSCL4 LOAD TRANSLATION ACCESS:      10644  HIT:      10644  MISS:          0  HIT %:        100  MISS %:          0   MPKI: 0
PSCL4 PREFETCH  REQUESTED:          0  ISSUED:          0  USEFUL:          0  USELESS:          0
PSCL4 USEFUL LOAD PREFETCHES:          0 PREFETCH ISSUED TO LOWER LEVEL:          0  ACCURACY: -nan
PSCL4 TIMELY PREFETCHES:          0 LATE PREFETCHES: 0 DROPPED PREFETCHES: 0
PSCL4 PREFETCHES SAME FILL-ORIGIN LEVEL: 0 DIFFERENT FILL-ORIGIN LEVEL: 0

PSCL4_Dead_block_count 0 0
PSCL4_inaccurate_prefetch_count 0 0
Interactions: positive negative neutral
PSCL4_interactions 0 0 0
PSCL4_positive 0 0 0
PSCL4_negative 0 0 0
PSCL4_neutral 0 0 0 0 0 0
PSCL3 TOTAL     ACCESS:       8509  HIT:       8505  MISS:          4  HIT %:     99.953  MISS %:   0.047009   MPKI: 8e-05
PSCL3 LOAD TRANSLATION ACCESS:       8509  HIT:       8505  MISS:          4  HIT %:     99.953  MISS %:   0.047009   MPKI: 8e-05
PSCL3 PREFETCH  REQUESTED:          0  ISSUED:          0  USEFUL:          0  USELESS:          0
PSCL3 USEFUL LOAD PREFETCHES:          0 PREFETCH ISSUED TO LOWER LEVEL:          0  ACCURACY: -nan
PSCL3 TIMELY PREFETCHES:          0 LATE PREFETCHES: 0 DROPPED PREFETCHES: 0
PSCL3 PREFETCHES SAME FILL-ORIGIN LEVEL: 0 DIFFERENT FILL-ORIGIN LEVEL: 0

PSCL3_Dead_block_count 0 0
PSCL3_inaccurate_prefetch_count 0 0
Interactions: positive negative neutral
PSCL3_interactions 0 0 0
PSCL3_positive 0 0 0
PSCL3_negative 0 0 0
PSCL3_neutral 0 0 0 0 0 0
PSCL2 TOTAL     ACCESS:      10644  HIT:      10622  MISS:         22  HIT %:    99.7933  MISS %:   0.206689   MPKI: 0.00044
PSCL2 LOAD TRANSLATION ACCESS:      10644  HIT:      10622  MISS:         22  HIT %:    99.7933  MISS %:   0.206689   MPKI: 0.00044
PSCL2 PREFETCH  REQUESTED:          0  ISSUED:          0  USEFUL:          0  USELESS:          0
PSCL2 USEFUL LOAD PREFETCHES:          0 PREFETCH ISSUED TO LOWER LEVEL:          0  ACCURACY: -nan
PSCL2 TIMELY PREFETCHES:          0 LATE PREFETCHES: 0 DROPPED PREFETCHES: 0
PSCL2 PREFETCHES SAME FILL-ORIGIN LEVEL: 0 DIFFERENT FILL-ORIGIN LEVEL: 0

PSCL2_Dead_block_count 0 0
PSCL2_inaccurate_prefetch_count 0 0
Interactions: positive negative neutral
PSCL2_interactions 0 0 0
PSCL2_positive 0 0 0
PSCL2_negative 0 0 0
PSCL2_neutral 0 0 0 0 0 0
LLC TOTAL     ACCESS:    1040424  HIT:       3019  MISS:    1037405  HIT %:    0.29017  MISS %:    99.7098   MPKI: 20.7481
LLC LOAD      ACCESS:       7555  HIT:       1003  MISS:       6552  HIT %:     13.276  MISS %:     86.724   MPKI: 0.13104
LLC RFO       ACCESS:     297694  HIT:          0  MISS:     297694  HIT %:          0  MISS %:        100   MPKI: 5.95388
LLC PREFETCH  ACCESS:     435711  HIT:       1957  MISS:     433754  HIT %:   0.449151  MISS %:    99.5508   MPKI: 8.67508
LLC WRITEBACK ACCESS:     298099  HIT:         30  MISS:     298069  HIT %:  0.0100638  MISS %:    99.9899   MPKI: 5.96138
LLC LOAD TRANSLATION ACCESS:       1365  HIT:         29  MISS:       1336  HIT %:    2.12454  MISS %:    97.8755   MPKI: 0.02672
LLC PREFETCH  REQUESTED:          0  ISSUED:          0  USEFUL:         21  USELESS:     433739
LLC USEFUL LOAD PREFETCHES:         21 PREFETCH ISSUED TO LOWER LEVEL:     433754  ACCURACY: 0.00484145
LLC TIMELY PREFETCHES:         21 LATE PREFETCHES: 0 DROPPED PREFETCHES: 0
LLC PREFETCHES SAME FILL-ORIGIN LEVEL: 0 DIFFERENT FILL-ORIGIN LEVEL: 0
LLC AVERAGE MISS LATENCY: 164.27 cycles
LLC RQ	ACCESS:     306616	FORWARD:          0	MERGED:          0	TO_CACHE:     306616
LLC WQ	ACCESS:     298099	FORWARD:          0	MERGED:          0	TO_CACHE:     298099
LLC PQ	ACCESS:     435711	FORWARD:          0	MERGED:          0	TO_CACHE:     435711

LLC_Dead_block_count 304548 1036
LLC_inaccurate_prefetch_count 433684 70
Interactions: positive negative neutral
LLC_interactions 59 127800 364117
LLC_positive 0 47 12
LLC_negative 126579 236 985
LLC_neutral 1 0 53950 57939 252227 0
LLC Dense regions hint to LLC: 0

RAW hits: 193768
Loads Generated: 14661466
Loads sent to L1D: 14467696
Stores Generated: 9162246
Stores sent to L1D: 9162265
Major fault: 0 Minor fault: 12766
Allocated PAGES: 12766

stream: 
stream:times selected: 595734
stream:pref_filled: 601257
stream:pref_useful: 594867
stream:pref_late: 0
stream:misses: 4
stream:misses_by_poll: 0

CS: 
CS:times selected: 539167
CS:pref_filled: 215
CS:pref_useful: 210
CS:pref_late: 0
CS:misses: 40532
CS:misses_by_poll: 2

CPLX: 
CPLX:times selected: 56516
CPLX:pref_filled: 165
CPLX:pref_useful: 165
CPLX:pref_late: 0
CPLX:misses: 5868
CPLX:misses_by_poll: 0

NL_L1: 
NL:times selected: 6
NL:pref_filled: 3
NL:pref_useful: 3
NL:pref_late: 0
NL:misses: 1
NL:misses_by_poll: 0

total selections: 1191423
total_filled: 501369
total_useful: 498888
total_late: 0
total_polluted: 2
total_misses_after_warmup: 42965
conflicts: 83864
Degree Incremented Times: 85566
Degree Decremented Times: 0

L1 IP Table Write Accesses: 8837782
L1 IP Table Read Accesses: 8753918
L1 RST Write Accesses: 494510
L1 RST Read Accesses: 989020
L1 CSPT Write Accesses: 494510
L1 CSPT Read Accesses: 641698
L1 RR Filter Tag Write Accesses: 2577774
L1 RR Filter Tag Read Accesses: 124827404
L1 IP Table Tag Write Accesses: 9682809
L1 IP Table Tag Read Accesses: 9682809
L1 RST Tag Write Accesses: 0
L1 RST Tag Read Accesses: 4451224
L1 RR Filter Write Accesses: 0
L1 RR Filter Read Accesses: 4237961
test: 9554
L2 IP Table Read Accesses: 969388
L2 IP Table Write Accesses: 953805
L2 IP Table Tag Read Accesses: 500553
L2 IP Table Tag Write Accesses: 500553

DRAM Statistics
 CHANNEL 0
 RQ ROW_BUFFER_HIT:     389237  ROW_BUFFER_MISS:     350099
 DBUS_CONGESTED:        466
 WQ ROW_BUFFER_HIT:     142722  ROW_BUFFER_MISS:     156328  FULL:        107

 AVG_CONGESTED_CYCLE: 5
 All warmup complete: 2
Channel 0 Bank busy for read cycles: 0
Channel 0 Bank busy for write cycles: 0
Channel 0
Rank 0
0banks busy for read cycles: 986680
0banks busy for write cycles: 22627
1banks busy for read cycles: 14174071
1banks busy for write cycles: 1876604
2banks busy for read cycles: 7523496
2banks busy for write cycles: 2002168
3banks busy for read cycles: 4488344
3banks busy for write cycles: 1666694
4banks busy for read cycles: 1952529
4banks busy for write cycles: 1312305
5banks busy for read cycles: 1123379
5banks busy for write cycles: 1081185
6banks busy for read cycles: 883211
6banks busy for write cycles: 886387
7banks busy for read cycles: 961728
7banks busy for write cycles: 899225
8banks busy for read cycles: 486800
8banks busy for write cycles: 1505544

CPU 0 Branch Prediction Accuracy: 80.6206% MPKI: 1.63562 Average ROB Occupancy at Mispredict: 67.6664
Branch types
NOT_BRANCH: 49577691 99.1554%
BRANCH_DIRECT_JUMP: 0 0%
BRANCH_INDIRECT: 0 0%
BRANCH_CONDITIONAL: 421999 0.843998%
BRANCH_DIRECT_CALL: 0 0%
BRANCH_INDIRECT_CALL: 0 0%
BRANCH_RETURN: 0 0%
BRANCH_OTHER: 0 0%

@sumon_overall_L1D    498888         0         0      2483    501369   5034602   5095075
@Sumon_Early_by_class_L1D    496778       115       117         0
@Sumon_Late_by_class_L1D         0         0         0         0

@Sumon_Early_by_cycle_L1D         6       131       114      1889      4882     55296     86714    349853         3         0         0         0
@Sumon_Late_by_cycle_L1D         0         0         0         0         0         0
@Sumon_Early_stream_L1D         6       131       109      1699      3642     54799     86540    349852         0         0         0         0
@Sumon_Early_CS_L1D         0         0         0         0         0        19        96         0         0         0         0         0
@Sumon_Early_CPLX_L1D         0         0         0         1         1        47        65         0         3         0         0         0
@Sumon_Late_stream_L1D         0         0         0         0         0         0
@Sumon_Late_CS_L1D         0         0         0         0         0         0
@Sumon_Late_CPLX_L1D         0         0         0         0         0         0
@sumon_overall_L2C     17713         2         0    416600    435709   2583760   2637784
@Sumon_Early_by_class_L2C     16169         0        10         0
@Sumon_Late_by_class_L2C         0         0         0         0

@Sumon_Early_by_cycle_L2C         3         8        14       320       708      1294      2057      9566      3260         3         0       480
@Sumon_Late_by_cycle_L2C         0         1         1         0         0         0
@Sumon_Early_stream_L2C         0         6         3         7        15       795      2037      9563      3260         3         0       480
@Sumon_Early_CS_L2C         0         0         0         0         0         0         0         0         0         0         0         0
@Sumon_Early_CPLX_L2C         0         0         0         0         0         0        10         0         0         0         0         0
@Sumon_Late_stream_L2C         0         0         0         0         0         0
@Sumon_Late_CS_L2C         0         0         0         0         0         0
@Sumon_Late_CPLX_L2C         0         0         0         0         0         0
DRAM PAGES: 1048576
Allocated PAGES: 12766
