
*** ChampSim Multicore Out-of-Order Simulator ***

Warmup Instructions: 10000000
Simulation Instructions: 50000000
Number of CPUs: 1
LLC sets: 2048
LLC ways: 16
Off-chip DRAM Size: 4096 MB Channels: 1 Width: 64-bit Data Rate: 6400 MT/s
CPU 0 runs traces/SPEC2017/605.mcf_s-472B.champsimtrace.xz
.xz
CPU 0 Bimodal branch predictor
BTB has LRU replacement policy
ITLB has LRU replacement policy
DTLB has LRU replacement policy
STLB has LRU replacement policy
L1I has LRU replacement policy
IP Table Entries: 256
L1D has LRU replacement policy
IP_Table L2 entries: 256
L2C has LRU replacement policy
Initialize SRRIP state
Heartbeat CPU 0 instructions: 10000001 cycles: 3185097 heartbeat IPC: 3.13962 cumulative IPC: 3.13962 (Simulation time: 0 hr 13 min 39 sec) 

Warmup complete CPU 0 instructions: 10000001 cycles: 3185097 (Simulation time: 0 hr 13 min 39 sec) 

Heartbeat CPU 0 instructions: 20000000 cycles: 30056817 heartbeat IPC: 0.372138 cumulative IPC: 0.372138 (Simulation time: 0 hr 32 min 17 sec) 
Heartbeat CPU 0 instructions: 30000001 cycles: 60282948 heartbeat IPC: 0.33084 cumulative IPC: 0.350276 (Simulation time: 0 hr 52 min 12 sec) 
Heartbeat CPU 0 instructions: 40000000 cycles: 85446443 heartbeat IPC: 0.397401 cumulative IPC: 0.364691 (Simulation time: 1 hr 2 min 30 sec) 
Heartbeat CPU 0 instructions: 50000000 cycles: 110041906 heartbeat IPC: 0.406579 cumulative IPC: 0.374333 (Simulation time: 1 hr 8 min 7 sec) 
Heartbeat CPU 0 instructions: 60000001 cycles: 134502083 heartbeat IPC: 0.408828 cumulative IPC: 0.380758 (Simulation time: 1 hr 11 min 40 sec) 
Finished CPU 0 instructions: 50000000 cycles: 131316986 cumulative IPC: 0.380758 (Simulation time: 1 hr 11 min 40 sec) 

ChampSim completed all CPUs

Region of Interest Statistics

CPU 0 cumulative IPC: 0.380758 instructions: 50000000 cycles: 131316986
ITLB TOTAL     ACCESS:    8454002  HIT:    8454002  MISS:          0  HIT %:        100  MISS %:          0   MPKI: 0
ITLB LOAD TRANSLATION ACCESS:    8454002  HIT:    8454002  MISS:          0  HIT %:        100  MISS %:          0   MPKI: 0
ITLB PREFETCH  REQUESTED:          0  ISSUED:          0  USEFUL:          0  USELESS:          0
ITLB USEFUL LOAD PREFETCHES:          0 PREFETCH ISSUED TO LOWER LEVEL:          0  ACCURACY: -nan
ITLB TIMELY PREFETCHES:          0 LATE PREFETCHES: 0 DROPPED PREFETCHES: 0
ITLB PREFETCHES SAME FILL-ORIGIN LEVEL: 0 DIFFERENT FILL-ORIGIN LEVEL: 0
ITLB AVERAGE MISS LATENCY: -nan cycles
ITLB RQ	ACCESS:   11052284	FORWARD:          0	MERGED:    2598282	TO_CACHE:    8454002

ITLB_Dead_block_count 0 0
ITLB_inaccurate_prefetch_count 0 0
Interactions: positive negative neutral
ITLB_interactions 0 0 0
ITLB_positive 0 0 0
ITLB_negative 0 0 0
ITLB_neutral 0 0 0 0 0 0
DTLB TOTAL     ACCESS:   13937717  HIT:   13810871  MISS:     126846  HIT %:    99.0899  MISS %:   0.910092   MPKI: 2.53692
DTLB LOAD TRANSLATION ACCESS:   13937717  HIT:   13810871  MISS:     126846  HIT %:    99.0899  MISS %:   0.910092   MPKI: 2.53692
DTLB PREFETCH  REQUESTED:          0  ISSUED:          0  USEFUL:          0  USELESS:          0
DTLB USEFUL LOAD PREFETCHES:          0 PREFETCH ISSUED TO LOWER LEVEL:          0  ACCURACY: -nan
DTLB TIMELY PREFETCHES:          0 LATE PREFETCHES: 0 DROPPED PREFETCHES: 0
DTLB PREFETCHES SAME FILL-ORIGIN LEVEL: 0 DIFFERENT FILL-ORIGIN LEVEL: 0
DTLB AVERAGE MISS LATENCY: 35.3858 cycles
DTLB RQ	ACCESS:   22532196	FORWARD:          0	MERGED:    8552656	TO_CACHE:   13979540

DTLB_Dead_block_count 126842 4
DTLB_inaccurate_prefetch_count 0 0
Interactions: positive negative neutral
DTLB_interactions 0 0 0
DTLB_positive 0 0 0
DTLB_negative 0 0 0
DTLB_neutral 0 0 0 0 0 0
STLB TOTAL     ACCESS:    4421572  HIT:    4347298  MISS:      74274  HIT %:    98.3202  MISS %:    1.67981   MPKI: 1.48548
STLB LOAD TRANSLATION ACCESS:     126846  HIT:      52603  MISS:      74243  HIT %:      41.47  MISS %:      58.53   MPKI: 1.48486
STLB TRANSLATION FROM L1D PREFETCHER ACCESS:    4294726  HIT:    4294695  MISS:         31  HIT %:    99.9993  MISS %: 0.000721816   MPKI: 0.00062
STLB PREFETCH  REQUESTED:          0  ISSUED:          0  USEFUL:         22  USELESS:          9
STLB USEFUL LOAD PREFETCHES:         22 PREFETCH ISSUED TO LOWER LEVEL:          0  ACCURACY: inf
STLB TIMELY PREFETCHES:         22 LATE PREFETCHES: 0 DROPPED PREFETCHES: 0
STLB PREFETCHES SAME FILL-ORIGIN LEVEL: 0 DIFFERENT FILL-ORIGIN LEVEL: 0
STLB AVERAGE MISS LATENCY: 45.132 cycles
STLB RQ	ACCESS:    7119178	FORWARD:          0	MERGED:    2697606	TO_CACHE:    4421572

STLB_Dead_block_count 74270 4
STLB_inaccurate_prefetch_count 0 0
Interactions: positive negative neutral
STLB_interactions 0 0 0
STLB_positive 0 0 0
STLB_negative 0 0 0
STLB_neutral 0 0 0 0 0 0
STLB Hit, L1D data hit: 0
STLB Hit, L2C data hit: 0
STLB Hit, LLC data hit: 0
STLB Hit, LLC data miss: 0
STLB STLB hints to L2: 0
L1D TOTAL     ACCESS:   28011645  HIT:   23719339  MISS:    4292306  HIT %:    84.6767  MISS %:    15.3233   MPKI: 85.8461
L1D LOAD      ACCESS:   10100989  HIT:    8640396  MISS:    1460593  HIT %:    85.5401  MISS %:    14.4599   MPKI: 29.2119
L1D RFO       ACCESS:   11171669  HIT:   11036794  MISS:     134875  HIT %:    98.7927  MISS %:    1.20729   MPKI: 2.6975
L1D PREFETCH  ACCESS:    6738987  HIT:    4042149  MISS:    2696838  HIT %:    59.9816  MISS %:    40.0184   MPKI: 53.9368
L1D PREFETCH  REQUESTED:   14042289  ISSUED:   13985007  USEFUL:     837715  USELESS:    1859177
L1D USEFUL LOAD PREFETCHES:     837715 PREFETCH ISSUED TO LOWER LEVEL:    2702663  ACCURACY: 30.9959
L1D TIMELY PREFETCHES:     837715 LATE PREFETCHES: 634457 DROPPED PREFETCHES: 0
L1D PREFETCHES SAME FILL-ORIGIN LEVEL: 2702663 DIFFERENT FILL-ORIGIN LEVEL: 0
L1D AVERAGE MISS LATENCY: 93799.5 cycles
L1D RQ	ACCESS:   17025637	FORWARD:          0	MERGED:    6086342	TO_CACHE:   10929846
L1D WQ	ACCESS:   11892813	FORWARD:       9451	MERGED:     290463	TO_CACHE:   11602350
L1D PQ	ACCESS:    6992675	FORWARD:          0	MERGED:        341	TO_CACHE:    6992332

L1D_Dead_block_count 21958 1438635
L1D_inaccurate_prefetch_count 988752 1713911
Interactions: positive negative neutral
L1D_interactions 542938 807530 2055059
L1D_positive 12238 261979 268721
L1D_negative 555085 4887 247558
L1D_neutral 970490 437607 8537 4216 176680 457529
L1D UNIQUE REGIONS ACCESSED: 0
L1D REGIONS CONFLICTS: 0
L1D Cross Page Prefetch Requests: 0
L1D Same Page Prefetch Requests: 9138446
L1D ROI Sum of L1D PQ occupancy: 128558106
L1D PREFETCHES PUSHED FROM L2C: 0
L1I TOTAL     ACCESS:   11052282  HIT:   11052282  MISS:          0  HIT %:        100  MISS %:          0   MPKI: 0
L1I LOAD      ACCESS:   11052282  HIT:   11052282  MISS:          0  HIT %:        100  MISS %:          0   MPKI: 0
L1I PREFETCH  REQUESTED:          0  ISSUED:          0  USEFUL:          0  USELESS:          0
L1I USEFUL LOAD PREFETCHES:          0 PREFETCH ISSUED TO LOWER LEVEL:          0  ACCURACY: -nan
L1I TIMELY PREFETCHES:          0 LATE PREFETCHES: 0 DROPPED PREFETCHES: 0
L1I PREFETCHES SAME FILL-ORIGIN LEVEL: 0 DIFFERENT FILL-ORIGIN LEVEL: 0
L1I AVERAGE MISS LATENCY: -nan cycles
L1I RQ	ACCESS:   14775570	FORWARD:          0	MERGED:    3723286	TO_CACHE:   11052284

L1I_Dead_block_count 0 0
L1I_inaccurate_prefetch_count 0 0
Interactions: positive negative neutral
L1I_interactions 0 0 0
L1I_positive 0 0 0
L1I_negative 0 0 0
L1I_neutral 0 0 0 0 0 0
BTB TOTAL     ACCESS:    5821401  HIT:    5821367  MISS:         34  HIT %:    99.9994  MISS %: 0.000584052   MPKI: 0.00068
BTB BRANCH_DIRECT_JUMP	ACCESS:     638582  HIT:     638576  MISS:          6
BTB BRANCH_INDIRECT	ACCESS:          0  HIT:          0  MISS:          0
BTB BRANCH_CONDITIONAL	ACCESS:    5182671  HIT:    5182647  MISS:         24
BTB BRANCH_DIRECT_CALL	ACCESS:         74  HIT:         72  MISS:          2
BTB BRANCH_INDIRECT_CALL	ACCESS:          0  HIT:          0  MISS:          0
BTB BRANCH_RETURN	ACCESS:         74  HIT:         72  MISS:          2
BTB BRANCH_OTHER ACCESS:          0  HIT:          0  MISS:          0

L2C TOTAL     ACCESS:    5218347  HIT:    1175508  MISS:    4042839  HIT %:    22.5264  MISS %:    77.4736   MPKI: 80.8568
L2C LOAD      ACCESS:    1460549  HIT:      62400  MISS:    1398149  HIT %:    4.27237  MISS %:    95.7276   MPKI: 27.963
L2C DATA LOAD MPKI: 27.963
L2C INSTRUCTION LOAD MPKI: 0
L2C RFO       ACCESS:     129049  HIT:       5389  MISS:     123660  HIT %:    4.17593  MISS %:    95.8241   MPKI: 2.4732
L2C PREFETCH  ACCESS:    3243684  HIT:     734825  MISS:    2508859  HIT %:     22.654  MISS %:     77.346   MPKI: 50.1772
L2C DATA PREFETCH MPKI: 50.1772
L2C INSTRUCTION PREFETCH MPKI: 0
L2C WRITEBACK ACCESS:     310747  HIT:     309190  MISS:       1557  HIT %:    99.4989  MISS %:   0.501051   MPKI: 0.03114
L2C LOAD TRANSLATION ACCESS:      74287  HIT:      63704  MISS:      10583  HIT %:    85.7539  MISS %:    14.2461   MPKI: 0.21166
L2C TRANSLATION FROM L1D PREFETCHER ACCESS:         31  HIT:          0  MISS:         31  HIT %:          0  MISS %:        100   MPKI: 0.00062
L2C PREFETCH  REQUESTED:     803397  ISSUED:     803397  USEFUL:      18072  USELESS:    2491960
L2C USEFUL LOAD PREFETCHES:      18072 PREFETCH ISSUED TO LOWER LEVEL:    2509327  ACCURACY: 0.720193
L2C TIMELY PREFETCHES:      18072 LATE PREFETCHES: 468 DROPPED PREFETCHES: 0
L2C PREFETCHES SAME FILL-ORIGIN LEVEL: 323639 DIFFERENT FILL-ORIGIN LEVEL: 0
L2C AVERAGE MISS LATENCY: 135.331 cycles
L2C RQ	ACCESS:    1663961	FORWARD:          0	MERGED:          0	TO_CACHE:    1663916
L2C WQ	ACCESS:     310747	FORWARD:         67	MERGED:          0	TO_CACHE:     310747
L2C PQ	ACCESS:    3506060	FORWARD:          0	MERGED:      27420	TO_CACHE:    3478618

L2C_Dead_block_count 1498760 33195
L2C_inaccurate_prefetch_count 2479575 29752
Interactions: positive negative neutral
L2C_interactions 40495 40648 3337408
L2C_positive 8555 19017 12923
L2C_negative 20481 7557 12610
L2C_neutral 343 272 898146 882815 1555592 240
L2C Instructions Evicting Data 0
L2C Translations Evicting Data 10602
L2C Data Evicting Data 4020137
L2C Instructions Evicting Instructions 0
L2C Translations Evicting Instructions 0
L2C Data Evicting Instructions 0
L2C Instructions Evicting Translations 0
L2C Translations Evicting Translations 12
L2C Data Evicting Translations 10531
L2C Dense regions hint from L2: 0
PSCL5 TOTAL     ACCESS:      74274  HIT:      74274  MISS:          0  HIT %:        100  MISS %:          0   MPKI: 0
PSCL5 LOAD TRANSLATION ACCESS:      74243  HIT:      74243  MISS:          0  HIT %:        100  MISS %:          0   MPKI: 0
PSCL5 TRANSLATION FROM L1D PREFETCHER ACCESS:         31  HIT:         31  MISS:          0  HIT %:        100  MISS %:          0   MPKI: 0
PSCL5 PREFETCH  REQUESTED:          0  ISSUED:          0  USEFUL:          0  USELESS:          0
PSCL5 USEFUL LOAD PREFETCHES:          0 PREFETCH ISSUED TO LOWER LEVEL:          0  ACCURACY: -nan
PSCL5 TIMELY PREFETCHES:          0 LATE PREFETCHES: 0 DROPPED PREFETCHES: 0
PSCL5 PREFETCHES SAME FILL-ORIGIN LEVEL: 0 DIFFERENT FILL-ORIGIN LEVEL: 0

PSCL5_Dead_block_count 0 0
PSCL5_inaccurate_prefetch_count 0 0
Interactions: positive negative neutral
PSCL5_interactions 0 0 0
PSCL5_positive 0 0 0
PSCL5_negative 0 0 0
PSCL5_neutral 0 0 0 0 0 0
PSCL4 TOTAL     ACCESS:      74274  HIT:      74274  MISS:          0  HIT %:        100  MISS %:          0   MPKI: 0
PSCL4 LOAD TRANSLATION ACCESS:      74243  HIT:      74243  MISS:          0  HIT %:        100  MISS %:          0   MPKI: 0
PSCL4 TRANSLATION FROM L1D PREFETCHER ACCESS:         31  HIT:         31  MISS:          0  HIT %:        100  MISS %:          0   MPKI: 0
PSCL4 PREFETCH  REQUESTED:          0  ISSUED:          0  USEFUL:          0  USELESS:          0
PSCL4 USEFUL LOAD PREFETCHES:          0 PREFETCH ISSUED TO LOWER LEVEL:          0  ACCURACY: -nan
PSCL4 TIMELY PREFETCHES:          0 LATE PREFETCHES: 0 DROPPED PREFETCHES: 0
PSCL4 PREFETCHES SAME FILL-ORIGIN LEVEL: 0 DIFFERENT FILL-ORIGIN LEVEL: 0

PSCL4_Dead_block_count 0 0
PSCL4_inaccurate_prefetch_count 0 0
Interactions: positive negative neutral
PSCL4_interactions 0 0 0
PSCL4_positive 0 0 0
PSCL4_negative 0 0 0
PSCL4_neutral 0 0 0 0 0 0
PSCL3 TOTAL     ACCESS:      74274  HIT:      74274  MISS:          0  HIT %:        100  MISS %:          0   MPKI: 0
PSCL3 LOAD TRANSLATION ACCESS:      74243  HIT:      74243  MISS:          0  HIT %:        100  MISS %:          0   MPKI: 0
PSCL3 TRANSLATION FROM L1D PREFETCHER ACCESS:         31  HIT:         31  MISS:          0  HIT %:        100  MISS %:          0   MPKI: 0
PSCL3 PREFETCH  REQUESTED:          0  ISSUED:          0  USEFUL:          0  USELESS:          0
PSCL3 USEFUL LOAD PREFETCHES:          0 PREFETCH ISSUED TO LOWER LEVEL:          0  ACCURACY: -nan
PSCL3 TIMELY PREFETCHES:          0 LATE PREFETCHES: 0 DROPPED PREFETCHES: 0
PSCL3 PREFETCHES SAME FILL-ORIGIN LEVEL: 0 DIFFERENT FILL-ORIGIN LEVEL: 0

PSCL3_Dead_block_count 0 0
PSCL3_inaccurate_prefetch_count 0 0
Interactions: positive negative neutral
PSCL3_interactions 0 0 0
PSCL3_positive 0 0 0
PSCL3_negative 0 0 0
PSCL3_neutral 0 0 0 0 0 0
PSCL2 TOTAL     ACCESS:      74274  HIT:      74198  MISS:         76  HIT %:    99.8977  MISS %:   0.102324   MPKI: 0.00152
PSCL2 LOAD TRANSLATION ACCESS:      74243  HIT:      74167  MISS:         76  HIT %:    99.8976  MISS %:   0.102367   MPKI: 0.00152
PSCL2 TRANSLATION FROM L1D PREFETCHER ACCESS:         31  HIT:         31  MISS:          0  HIT %:        100  MISS %:          0   MPKI: 0
PSCL2 PREFETCH  REQUESTED:          0  ISSUED:          0  USEFUL:          0  USELESS:          0
PSCL2 USEFUL LOAD PREFETCHES:          0 PREFETCH ISSUED TO LOWER LEVEL:          0  ACCURACY: -nan
PSCL2 TIMELY PREFETCHES:          0 LATE PREFETCHES: 0 DROPPED PREFETCHES: 0
PSCL2 PREFETCHES SAME FILL-ORIGIN LEVEL: 0 DIFFERENT FILL-ORIGIN LEVEL: 0

PSCL2_Dead_block_count 0 0
PSCL2_inaccurate_prefetch_count 0 0
Interactions: positive negative neutral
PSCL2_interactions 0 0 0
PSCL2_positive 0 0 0
PSCL2_negative 0 0 0
PSCL2_neutral 0 0 0 0 0 0
LLC TOTAL     ACCESS:    4300703  HIT:    1110668  MISS:    3190035  HIT %:    25.8253  MISS %:    74.1747   MPKI: 63.8007
LLC LOAD      ACCESS:    1397681  HIT:     678105  MISS:     719576  HIT %:    48.5164  MISS %:    51.4836   MPKI: 14.3915
LLC RFO       ACCESS:     123660  HIT:        189  MISS:     123471  HIT %:   0.152838  MISS %:    99.8472   MPKI: 2.46942
LLC PREFETCH  ACCESS:    2509327  HIT:     421816  MISS:    2087511  HIT %:    16.8099  MISS %:    83.1901   MPKI: 41.7502
LLC WRITEBACK ACCESS:     259421  HIT:       3325  MISS:     256096  HIT %:     1.2817  MISS %:    98.7183   MPKI: 5.12192
LLC LOAD TRANSLATION ACCESS:      10583  HIT:       7233  MISS:       3350  HIT %:    68.3455  MISS %:    31.6545   MPKI: 0.067
LLC TRANSLATION FROM L1D PREFETCHER ACCESS:         31  HIT:          0  MISS:         31  HIT %:          0  MISS %:        100   MPKI: 0.00062
LLC PREFETCH  REQUESTED:          0  ISSUED:          0  USEFUL:       1276  USELESS:    2094390
LLC USEFUL LOAD PREFETCHES:       1276 PREFETCH ISSUED TO LOWER LEVEL:    2087511  ACCURACY: 0.0611254
LLC TIMELY PREFETCHES:       1276 LATE PREFETCHES: 0 DROPPED PREFETCHES: 0
LLC PREFETCHES SAME FILL-ORIGIN LEVEL: 0 DIFFERENT FILL-ORIGIN LEVEL: 0
LLC AVERAGE MISS LATENCY: 133.386 cycles
LLC RQ	ACCESS:    1531955	FORWARD:          0	MERGED:          0	TO_CACHE:    1531955
LLC WQ	ACCESS:     259421	FORWARD:          0	MERGED:          0	TO_CACHE:     259421
LLC PQ	ACCESS:    2509327	FORWARD:          0	MERGED:          0	TO_CACHE:    2509327

LLC_Dead_block_count 301558 544870
LLC_inaccurate_prefetch_count 2085885 1626
Interactions: positive negative neutral
LLC_interactions 5948 167336 2477755
LLC_positive 18 5900 30
LLC_negative 167282 11 43
LLC_neutral 2 0 549097 557586 1371070 0
LLC Dense regions hint to LLC: 0

RAW hits: 727288
Loads Generated: 17752925
Loads sent to L1D: 17025637
Stores Generated: 11892805
Stores sent to L1D: 11892813
Major fault: 0 Minor fault: 13946
Allocated PAGES: 13946

stream: 
stream:times selected: 8122283
stream:pref_filled: 1991835
stream:pref_useful: 436797
stream:pref_late: 251443
stream:misses: 207750
stream:misses_by_poll: 0

CS: 
CS:times selected: 487229
CS:pref_filled: 332492
CS:pref_useful: 329568
CS:pref_late: 4326
CS:misses: 19878
CS:misses_by_poll: 569

CPLX: 
CPLX:times selected: 7597614
CPLX:pref_filled: 868325
CPLX:pref_useful: 287797
CPLX:pref_late: 287949
CPLX:misses: 2101074
CPLX:misses_by_poll: 4812

NL_L1: 
NL:times selected: 38035
NL:pref_filled: 5576
NL:pref_useful: 1522
NL:pref_late: 1452
NL:misses: 17164
NL:misses_by_poll: 0

total selections: 16245161
total_filled: 2696838
total_useful: 837715
total_late: 545170
total_polluted: 5381
total_misses_after_warmup: 2289448
conflicts: 25304
Degree Incremented Times: 51846
Degree Decremented Times: 133046

L1 IP Table Write Accesses: 10799767
L1 IP Table Read Accesses: 10774463
L1 RST Write Accesses: 6844869
L1 RST Read Accesses: 13689738
L1 CSPT Write Accesses: 6844869
L1 CSPT Read Accesses: 13220215
L1 RR Filter Tag Write Accesses: 7049957
L1 RR Filter Tag Read Accesses: 363227698
L1 IP Table Tag Write Accesses: 10929844
L1 IP Table Tag Read Accesses: 10929844
L1 RST Tag Write Accesses: 0
L1 RST Tag Read Accesses: 64893219
L1 RR Filter Write Accesses: 0
L1 RR Filter Read Accesses: 12597907
test: 3229986
L2 IP Table Read Accesses: 8117289
L2 IP Table Write Accesses: 6700247
L2 IP Table Tag Read Accesses: 4081660
L2 IP Table Tag Write Accesses: 4081660

DRAM Statistics
 CHANNEL 0
 RQ ROW_BUFFER_HIT:    1815511  ROW_BUFFER_MISS:    1118349
 DBUS_CONGESTED:       2887
 WQ ROW_BUFFER_HIT:      81565  ROW_BUFFER_MISS:     176123  FULL:          0

 AVG_CONGESTED_CYCLE: 5
 All warmup complete: 2
Channel 0 Bank busy for read cycles: 0
Channel 0 Bank busy for write cycles: 0
Channel 0
Rank 0
0banks busy for read cycles: 29499034
0banks busy for write cycles: 37311
1banks busy for read cycles: 26093975
1banks busy for write cycles: 5230699
2banks busy for read cycles: 15694632
2banks busy for write cycles: 3318222
3banks busy for read cycles: 10763760
3banks busy for write cycles: 2370232
4banks busy for read cycles: 7997277
4banks busy for write cycles: 1736666
5banks busy for read cycles: 7262422
5banks busy for write cycles: 1272791
6banks busy for read cycles: 6834714
6banks busy for write cycles: 967763
7banks busy for read cycles: 5386526
7banks busy for write cycles: 1015795
8banks busy for read cycles: 2764853
8banks busy for write cycles: 3070315

CPU 0 Branch Prediction Accuracy: 98.3401% MPKI: 1.96794 Average ROB Occupancy at Mispredict: 170.021
Branch types
NOT_BRANCH: 44071945 88.1439%
BRANCH_DIRECT_JUMP: 638582 1.27716%
BRANCH_INDIRECT: 0 0%
BRANCH_CONDITIONAL: 5289321 10.5786%
BRANCH_DIRECT_CALL: 74 0.000148%
BRANCH_INDIRECT_CALL: 0 0%
BRANCH_RETURN: 74 0.000148%
BRANCH_OTHER: 0 0%

@sumon_overall_L1D    837715    634457    634457   1859177   2696838  13985007  14042289
@Sumon_Early_by_class_L1D    237484    325381    273676      1423
@Sumon_Late_by_class_L1D    231345      4304    286918      1423

@Sumon_Early_by_cycle_L1D    269027    177339    181111     54087     19521     47598     23864     23861     17927     15311      6380      1689
@Sumon_Late_by_cycle_L1D     31465     56175    207979     69967    157969       435
@Sumon_Early_stream_L1D    123776     53496     21199      3222      1790     14357      7467      4812      3712      2401       700       552
@Sumon_Early_CS_L1D     36482     55189    126088     46029     15957     17808      9036     12318      6329       145         0         0
@Sumon_Early_CPLX_L1D    108033     68457     33805      4836      1774     15394      7328      6674      7835     12735      5673      1132
@Sumon_Late_stream_L1D     14241     29611     51060     46004     90192       237
@Sumon_Late_CS_L1D       723       954       811       953       857         6
@Sumon_Late_CPLX_L1D     16431     25478    155769     22668     66380       192
@sumon_overall_L2C     18072       468         0   2491960   2508890    803397    803397
@Sumon_Early_by_class_L2C      3112      3058      9928         0
@Sumon_Late_by_class_L2C         0       414         0         0

@Sumon_Early_by_cycle_L2C       451       682       857       540       186       257       123       206       791      2254      3356      8369
@Sumon_Late_by_cycle_L2C        40        69        90       119       150         0
@Sumon_Early_stream_L2C         0         0         0         0         0         0         0        25       354       856       726      1151
@Sumon_Early_CS_L2C       446       676       851       533       182       209        48        23        80        10         0         0
@Sumon_Early_CPLX_L2C         0         0         0         0         0         0         0         8       100       898      2347      6575
@Sumon_Late_stream_L2C         0         0         0         0         0         0
@Sumon_Late_CS_L2C         0        66        84       117       147         0
@Sumon_Late_CPLX_L2C         0         0         0         0         0         0
DRAM PAGES: 1048576
Allocated PAGES: 13946
