
*** ChampSim Multicore Out-of-Order Simulator ***

Warmup Instructions: 10000000
Simulation Instructions: 50000000
Number of CPUs: 1
LLC sets: 2048
LLC ways: 16
Off-chip DRAM Size: 4096 MB Channels: 1 Width: 64-bit Data Rate: 6400 MT/s
CPU 0 runs traces/SPEC2017/607.cactuBSSN_s-2421B.champsimtrace.xz
.xz
CPU 0 Bimodal branch predictor
BTB has LRU replacement policy
ITLB has LRU replacement policy
DTLB has LRU replacement policy
STLB has LRU replacement policy
L1I has LRU replacement policy
IP Table Entries: 256
L1D has LRU replacement policy
IP_Table L2 entries: 256
L2C has LRU replacement policy
Initialize SRRIP state
Heartbeat CPU 0 instructions: 10000002 cycles: 3586590 heartbeat IPC: 2.78816 cumulative IPC: 2.78816 (Simulation time: 0 hr 14 min 25 sec) 

Warmup complete CPU 0 instructions: 10000002 cycles: 3586590 (Simulation time: 0 hr 14 min 25 sec) 

Heartbeat CPU 0 instructions: 20000001 cycles: 14629147 heartbeat IPC: 0.905587 cumulative IPC: 0.905587 (Simulation time: 0 hr 25 min 0 sec) 
Heartbeat CPU 0 instructions: 30000000 cycles: 25649029 heartbeat IPC: 0.907451 cumulative IPC: 0.906518 (Simulation time: 0 hr 35 min 40 sec) 
Heartbeat CPU 0 instructions: 40000001 cycles: 36677621 heartbeat IPC: 0.906734 cumulative IPC: 0.90659 (Simulation time: 0 hr 46 min 12 sec) 
Heartbeat CPU 0 instructions: 50000000 cycles: 47713069 heartbeat IPC: 0.906171 cumulative IPC: 0.906485 (Simulation time: 0 hr 55 min 24 sec) 
Heartbeat CPU 0 instructions: 60000003 cycles: 58923688 heartbeat IPC: 0.892012 cumulative IPC: 0.903553 (Simulation time: 1 hr 1 min 15 sec) 
Finished CPU 0 instructions: 50000001 cycles: 55337098 cumulative IPC: 0.903553 (Simulation time: 1 hr 1 min 15 sec) 

ChampSim completed all CPUs

Region of Interest Statistics

CPU 0 cumulative IPC: 0.903553 instructions: 50000001 cycles: 55337098
ITLB TOTAL     ACCESS:    6918390  HIT:    6918330  MISS:         60  HIT %:    99.9991  MISS %: 0.000867254   MPKI: 0.0012
ITLB LOAD TRANSLATION ACCESS:    6918390  HIT:    6918330  MISS:         60  HIT %:    99.9991  MISS %: 0.000867254   MPKI: 0.0012
ITLB PREFETCH  REQUESTED:          0  ISSUED:          0  USEFUL:          0  USELESS:          0
ITLB USEFUL LOAD PREFETCHES:          0 PREFETCH ISSUED TO LOWER LEVEL:          0  ACCURACY: -nan
ITLB TIMELY PREFETCHES:          0 LATE PREFETCHES: 0 DROPPED PREFETCHES: 0
ITLB PREFETCHES SAME FILL-ORIGIN LEVEL: 0 DIFFERENT FILL-ORIGIN LEVEL: 0
ITLB AVERAGE MISS LATENCY: 372.383 cycles
ITLB RQ	ACCESS:    8513356	FORWARD:          0	MERGED:    1594954	TO_CACHE:    6918402

ITLB_Dead_block_count 56 4
ITLB_inaccurate_prefetch_count 0 0
Interactions: positive negative neutral
ITLB_interactions 0 0 0
ITLB_positive 0 0 0
ITLB_negative 0 0 0
ITLB_neutral 0 0 0 0 0 0
DTLB TOTAL     ACCESS:   13494634  HIT:   11275638  MISS:    2218996  HIT %:    83.5565  MISS %:    16.4435   MPKI: 44.3799
DTLB LOAD TRANSLATION ACCESS:   13494634  HIT:   11275638  MISS:    2218996  HIT %:    83.5565  MISS %:    16.4435   MPKI: 44.3799
DTLB PREFETCH  REQUESTED:          0  ISSUED:          0  USEFUL:          0  USELESS:          0
DTLB USEFUL LOAD PREFETCHES:          0 PREFETCH ISSUED TO LOWER LEVEL:          0  ACCURACY: -nan
DTLB TIMELY PREFETCHES:          0 LATE PREFETCHES: 0 DROPPED PREFETCHES: 0
DTLB PREFETCHES SAME FILL-ORIGIN LEVEL: 0 DIFFERENT FILL-ORIGIN LEVEL: 0
DTLB AVERAGE MISS LATENCY: 10.3113 cycles
DTLB RQ	ACCESS:   18945904	FORWARD:          0	MERGED:    5240764	TO_CACHE:   13705140

DTLB_Dead_block_count 2218992 4
DTLB_inaccurate_prefetch_count 0 0
Interactions: positive negative neutral
DTLB_interactions 0 0 0
DTLB_positive 0 0 0
DTLB_negative 0 0 0
DTLB_neutral 0 0 0 0 0 0
STLB TOTAL     ACCESS:    2247056  HIT:    2243998  MISS:       3058  HIT %:    99.8639  MISS %:   0.136089   MPKI: 0.06116
STLB LOAD TRANSLATION ACCESS:    2219056  HIT:    2215998  MISS:       3058  HIT %:    99.8622  MISS %:   0.137806   MPKI: 0.06116
STLB TRANSLATION FROM L1D PREFETCHER ACCESS:      28000  HIT:      28000  MISS:          0  HIT %:        100  MISS %:          0   MPKI: 0
STLB PREFETCH  REQUESTED:          0  ISSUED:          0  USEFUL:          0  USELESS:          0
STLB USEFUL LOAD PREFETCHES:          0 PREFETCH ISSUED TO LOWER LEVEL:          0  ACCURACY: -nan
STLB TIMELY PREFETCHES:          0 LATE PREFETCHES: 0 DROPPED PREFETCHES: 0
STLB PREFETCHES SAME FILL-ORIGIN LEVEL: 0 DIFFERENT FILL-ORIGIN LEVEL: 0
STLB AVERAGE MISS LATENCY: 712.903 cycles
STLB RQ	ACCESS:    2248302	FORWARD:          0	MERGED:       1246	TO_CACHE:    2247056

STLB_Dead_block_count 3054 4
STLB_inaccurate_prefetch_count 0 0
Interactions: positive negative neutral
STLB_interactions 0 0 0
STLB_positive 0 0 0
STLB_negative 0 0 0
STLB_neutral 0 0 0 0 0 0
STLB Hit, L1D data hit: 0
STLB Hit, L2C data hit: 0
STLB Hit, LLC data hit: 0
STLB Hit, LLC data miss: 0
STLB STLB hints to L2: 0
L1D TOTAL     ACCESS:   18852871  HIT:   14813559  MISS:    4039312  HIT %:    78.5746  MISS %:    21.4254   MPKI: 80.7862
L1D LOAD      ACCESS:   14553295  HIT:   10859519  MISS:    3693776  HIT %:     74.619  MISS %:     25.381   MPKI: 73.8755
L1D RFO       ACCESS:    4270338  HIT:    3950971  MISS:     319367  HIT %:    92.5213  MISS %:    7.47873   MPKI: 6.38734
L1D PREFETCH  ACCESS:      29238  HIT:       3069  MISS:      26169  HIT %:    10.4966  MISS %:    89.5034   MPKI: 0.52338
L1D PREFETCH  REQUESTED:      58493  ISSUED:      58493  USEFUL:       2955  USELESS:      23164
L1D USEFUL LOAD PREFETCHES:       2955 PREFETCH ISSUED TO LOWER LEVEL:      27705  ACCURACY: 10.6659
L1D TIMELY PREFETCHES:       2955 LATE PREFETCHES: 5 DROPPED PREFETCHES: 0
L1D PREFETCHES SAME FILL-ORIGIN LEVEL: 27705 DIFFERENT FILL-ORIGIN LEVEL: 0
L1D AVERAGE MISS LATENCY: 23.3387 cycles
L1D RQ	ACCESS:   18621762	FORWARD:          0	MERGED:    3964006	TO_CACHE:   14649040
L1D WQ	ACCESS:    4319717	FORWARD:       8717	MERGED:      22853	TO_CACHE:    4296864
L1D PQ	ACCESS:      29247	FORWARD:          0	MERGED:          0	TO_CACHE:      29246

L1D_Dead_block_count 1281171 2412605
L1D_inaccurate_prefetch_count 22281 3888
Interactions: positive negative neutral
L1D_interactions 5711 3270 35834
L1D_positive 1831 3312 568
L1D_negative 2028 685 557
L1D_neutral 1452 899 16340 13750 3356 37
L1D UNIQUE REGIONS ACCESSED: 0
L1D REGIONS CONFLICTS: 0
L1D Cross Page Prefetch Requests: 0
L1D Same Page Prefetch Requests: 30549
L1D ROI Sum of L1D PQ occupancy: 408404
L1D PREFETCHES PUSHED FROM L2C: 0
L1I TOTAL     ACCESS:    7956723  HIT:    6866966  MISS:    1089757  HIT %:    86.3039  MISS %:    13.6961   MPKI: 21.7951
L1I LOAD      ACCESS:    7956723  HIT:    6866966  MISS:    1089757  HIT %:    86.3039  MISS %:    13.6961   MPKI: 21.7951
L1I PREFETCH  REQUESTED:          0  ISSUED:          0  USEFUL:          0  USELESS:          0
L1I USEFUL LOAD PREFETCHES:          0 PREFETCH ISSUED TO LOWER LEVEL:          0  ACCURACY: -nan
L1I TIMELY PREFETCHES:          0 LATE PREFETCHES: 0 DROPPED PREFETCHES: 0
L1I PREFETCHES SAME FILL-ORIGIN LEVEL: 0 DIFFERENT FILL-ORIGIN LEVEL: 0
L1I AVERAGE MISS LATENCY: 14.2349 cycles
L1I RQ	ACCESS:   12024793	FORWARD:          0	MERGED:    3511437	TO_CACHE:    8513356

L1I_Dead_block_count 1089753 4
L1I_inaccurate_prefetch_count 0 0
Interactions: positive negative neutral
L1I_interactions 0 0 0
L1I_positive 0 0 0
L1I_negative 0 0 0
L1I_neutral 0 0 0 0 0 0
BTB TOTAL     ACCESS:     280550  HIT:     262606  MISS:      17944  HIT %:     93.604  MISS %:    6.39601   MPKI: 0.35888
BTB BRANCH_DIRECT_JUMP	ACCESS:      48856  HIT:      48796  MISS:         60
BTB BRANCH_INDIRECT	ACCESS:      10100  HIT:      10021  MISS:         79
BTB BRANCH_CONDITIONAL	ACCESS:     122188  HIT:     121715  MISS:        473
BTB BRANCH_DIRECT_CALL	ACCESS:      49700  HIT:      49036  MISS:        664
BTB BRANCH_INDIRECT_CALL	ACCESS:          3  HIT:          0  MISS:          3
BTB BRANCH_RETURN	ACCESS:      49703  HIT:      33038  MISS:      16665
BTB BRANCH_OTHER ACCESS:          0  HIT:          0  MISS:          0

L2C TOTAL     ACCESS:    7967632  HIT:    7629820  MISS:     337812  HIT %:    95.7602  MISS %:     4.2398   MPKI: 6.75624
L2C LOAD      ACCESS:    4767658  HIT:    4687656  MISS:      80002  HIT %:     98.322  MISS %:    1.67801   MPKI: 1.60004
L2C DATA LOAD MPKI: 1.57006
L2C INSTRUCTION LOAD MPKI: 0.02998
L2C RFO       ACCESS:     319084  HIT:     291173  MISS:      27911  HIT %:    91.2528  MISS %:    8.74723   MPKI: 0.55822
L2C PREFETCH  ACCESS:    2531187  HIT:    2305316  MISS:     225871  HIT %:    91.0765  MISS %:    8.92352   MPKI: 4.51742
L2C DATA PREFETCH MPKI: 4.51742
L2C INSTRUCTION PREFETCH MPKI: 0
L2C WRITEBACK ACCESS:     345232  HIT:     345220  MISS:         12  HIT %:    99.9965  MISS %: 0.00347592   MPKI: 0.00024
L2C LOAD TRANSLATION ACCESS:       4471  HIT:        455  MISS:       4016  HIT %:    10.1767  MISS %:    89.8233   MPKI: 0.08032
L2C PREFETCH  REQUESTED:    2543929  ISSUED:    2513267  USEFUL:     216957  USELESS:       8873
L2C USEFUL LOAD PREFETCHES:     216957 PREFETCH ISSUED TO LOWER LEVEL:     225976  ACCURACY: 96.0089
L2C TIMELY PREFETCHES:     216957 LATE PREFETCHES: 105 DROPPED PREFETCHES: 0
L2C PREFETCHES SAME FILL-ORIGIN LEVEL: 208621 DIFFERENT FILL-ORIGIN LEVEL: 0
L2C AVERAGE MISS LATENCY: 198.415 cycles
L2C RQ	ACCESS:    5107371	FORWARD:          0	MERGED:          0	TO_CACHE:    5091213
L2C WQ	ACCESS:     345232	FORWARD:      16190	MERGED:          0	TO_CACHE:     345232
L2C PQ	ACCESS:    2539436	FORWARD:          0	MERGED:       5025	TO_CACHE:    2534379

L2C_Dead_block_count 11409 100415
L2C_inaccurate_prefetch_count 2498 223478
Interactions: positive negative neutral
L2C_interactions 83920 7682 139445
L2C_positive 83182 411 327
L2C_negative 4742 2445 495
L2C_neutral 125197 912 9055 1408 382 2491
L2C Instructions Evicting Data 1472
L2C Translations Evicting Data 3947
L2C Data Evicting Data 326748
L2C Instructions Evicting Instructions 11
L2C Translations Evicting Instructions 15
L2C Data Evicting Instructions 1625
L2C Instructions Evicting Translations 16
L2C Translations Evicting Translations 54
L2C Data Evicting Translations 3912
L2C Dense regions hint from L2: 0
PSCL5 TOTAL     ACCESS:       3058  HIT:       3058  MISS:          0  HIT %:        100  MISS %:          0   MPKI: 0
PSCL5 LOAD TRANSLATION ACCESS:       3058  HIT:       3058  MISS:          0  HIT %:        100  MISS %:          0   MPKI: 0
PSCL5 PREFETCH  REQUESTED:          0  ISSUED:          0  USEFUL:          0  USELESS:          0
PSCL5 USEFUL LOAD PREFETCHES:          0 PREFETCH ISSUED TO LOWER LEVEL:          0  ACCURACY: -nan
PSCL5 TIMELY PREFETCHES:          0 LATE PREFETCHES: 0 DROPPED PREFETCHES: 0
PSCL5 PREFETCHES SAME FILL-ORIGIN LEVEL: 0 DIFFERENT FILL-ORIGIN LEVEL: 0

PSCL5_Dead_block_count 0 0
PSCL5_inaccurate_prefetch_count 0 0
Interactions: positive negative neutral
PSCL5_interactions 0 0 0
PSCL5_positive 0 0 0
PSCL5_negative 0 0 0
PSCL5_neutral 0 0 0 0 0 0
PSCL4 TOTAL     ACCESS:       3058  HIT:       3058  MISS:          0  HIT %:        100  MISS %:          0   MPKI: 0
PSCL4 LOAD TRANSLATION ACCESS:       3058  HIT:       3058  MISS:          0  HIT %:        100  MISS %:          0   MPKI: 0
PSCL4 PREFETCH  REQUESTED:          0  ISSUED:          0  USEFUL:          0  USELESS:          0
PSCL4 USEFUL LOAD PREFETCHES:          0 PREFETCH ISSUED TO LOWER LEVEL:          0  ACCURACY: -nan
PSCL4 TIMELY PREFETCHES:          0 LATE PREFETCHES: 0 DROPPED PREFETCHES: 0
PSCL4 PREFETCHES SAME FILL-ORIGIN LEVEL: 0 DIFFERENT FILL-ORIGIN LEVEL: 0

PSCL4_Dead_block_count 0 0
PSCL4_inaccurate_prefetch_count 0 0
Interactions: positive negative neutral
PSCL4_interactions 0 0 0
PSCL4_positive 0 0 0
PSCL4_negative 0 0 0
PSCL4_neutral 0 0 0 0 0 0
PSCL3 TOTAL     ACCESS:       3058  HIT:       3053  MISS:          5  HIT %:    99.8365  MISS %:   0.163506   MPKI: 0.0001
PSCL3 LOAD TRANSLATION ACCESS:       3058  HIT:       3053  MISS:          5  HIT %:    99.8365  MISS %:   0.163506   MPKI: 0.0001
PSCL3 PREFETCH  REQUESTED:          0  ISSUED:          0  USEFUL:          0  USELESS:          0
PSCL3 USEFUL LOAD PREFETCHES:          0 PREFETCH ISSUED TO LOWER LEVEL:          0  ACCURACY: -nan
PSCL3 TIMELY PREFETCHES:          0 LATE PREFETCHES: 0 DROPPED PREFETCHES: 0
PSCL3 PREFETCHES SAME FILL-ORIGIN LEVEL: 0 DIFFERENT FILL-ORIGIN LEVEL: 0

PSCL3_Dead_block_count 0 0
PSCL3_inaccurate_prefetch_count 0 0
Interactions: positive negative neutral
PSCL3_interactions 0 0 0
PSCL3_positive 0 0 0
PSCL3_negative 0 0 0
PSCL3_neutral 0 0 0 0 0 0
PSCL2 TOTAL     ACCESS:       3058  HIT:       1588  MISS:       1470  HIT %:    51.9294  MISS %:    48.0706   MPKI: 0.0294
PSCL2 LOAD TRANSLATION ACCESS:       3058  HIT:       1588  MISS:       1470  HIT %:    51.9294  MISS %:    48.0706   MPKI: 0.0294
PSCL2 PREFETCH  REQUESTED:          0  ISSUED:          0  USEFUL:          0  USELESS:          0
PSCL2 USEFUL LOAD PREFETCHES:          0 PREFETCH ISSUED TO LOWER LEVEL:          0  ACCURACY: -nan
PSCL2 TIMELY PREFETCHES:          0 LATE PREFETCHES: 0 DROPPED PREFETCHES: 0
PSCL2 PREFETCHES SAME FILL-ORIGIN LEVEL: 0 DIFFERENT FILL-ORIGIN LEVEL: 0

PSCL2_Dead_block_count 0 0
PSCL2_inaccurate_prefetch_count 0 0
Interactions: positive negative neutral
PSCL2_interactions 0 0 0
PSCL2_positive 0 0 0
PSCL2_negative 0 0 0
PSCL2_neutral 0 0 0 0 0 0
LLC TOTAL     ACCESS:     372823  HIT:     150500  MISS:     222323  HIT %:    40.3677  MISS %:    59.6323   MPKI: 4.44646
LLC LOAD      ACCESS:      79897  HIT:      45635  MISS:      34262  HIT %:    57.1173  MISS %:    42.8827   MPKI: 0.68524
LLC RFO       ACCESS:      27716  HIT:       3041  MISS:      24675  HIT %:     10.972  MISS %:     89.028   MPKI: 0.4935
LLC PREFETCH  ACCESS:     225976  HIT:      82917  MISS:     143059  HIT %:    36.6928  MISS %:    63.3072   MPKI: 2.86118
LLC WRITEBACK ACCESS:      35218  HIT:      15974  MISS:      19244  HIT %:    45.3575  MISS %:    54.6425   MPKI: 0.38488
LLC LOAD TRANSLATION ACCESS:       4016  HIT:       2933  MISS:       1083  HIT %:    73.0329  MISS %:    26.9671   MPKI: 0.02166
LLC PREFETCH  REQUESTED:          0  ISSUED:          0  USEFUL:      18631  USELESS:     121724
LLC USEFUL LOAD PREFETCHES:      18631 PREFETCH ISSUED TO LOWER LEVEL:     143059  ACCURACY: 13.0233
LLC TIMELY PREFETCHES:      18631 LATE PREFETCHES: 0 DROPPED PREFETCHES: 0
LLC PREFETCHES SAME FILL-ORIGIN LEVEL: 0 DIFFERENT FILL-ORIGIN LEVEL: 0
LLC AVERAGE MISS LATENCY: 254.48 cycles
LLC RQ	ACCESS:     111824	FORWARD:          0	MERGED:          0	TO_CACHE:     111629
LLC WQ	ACCESS:      35218	FORWARD:        195	MERGED:          0	TO_CACHE:      35218
LLC PQ	ACCESS:     225976	FORWARD:          0	MERGED:          0	TO_CACHE:     225976

LLC_Dead_block_count 36226 23794
LLC_inaccurate_prefetch_count 94888 48171
Interactions: positive negative neutral
LLC_interactions 29197 50916 96160
LLC_positive 16189 2471 10537
LLC_negative 17372 12950 20594
LLC_neutral 9941 3101 22977 14692 35891 9558
LLC Dense regions hint to LLC: 0

RAW hits: 105355
Loads Generated: 18727117
Loads sent to L1D: 18621762
Stores Generated: 4319811
Stores sent to L1D: 4319809
Major fault: 0 Minor fault: 3837
Allocated PAGES: 3837

stream: 
stream:times selected: 36562
stream:pref_filled: 21400
stream:pref_useful: 2699
stream:pref_late: 4
stream:misses: 477
stream:misses_by_poll: 0

CS: 
CS:times selected: 18321
CS:pref_filled: 340
CS:pref_useful: 34
CS:pref_late: 3
CS:misses: 2498
CS:misses_by_poll: 0

CPLX: 
CPLX:times selected: 34663
CPLX:pref_filled: 538
CPLX:pref_useful: 133
CPLX:pref_late: 0
CPLX:misses: 144277
CPLX:misses_by_poll: 1

NL_L1: 
NL:times selected: 4
NL:pref_filled: 3
NL:pref_useful: 1
NL:pref_late: 0
NL:misses: 17
NL:misses_by_poll: 0

total selections: 89550
total_filled: 26169
total_useful: 2955
total_late: 7
total_polluted: 1
total_misses_after_warmup: 3789529
conflicts: 6999652
Degree Incremented Times: 0
Degree Decremented Times: 1564432

L1 IP Table Write Accesses: 7400072
L1 IP Table Read Accesses: 400420
L1 RST Write Accesses: 34392
L1 RST Read Accesses: 68784
L1 CSPT Write Accesses: 34392
L1 CSPT Read Accesses: 68568
L1 RR Filter Tag Write Accesses: 29247
L1 RR Filter Tag Read Accesses: 2494141
L1 IP Table Tag Write Accesses: 14649048
L1 IP Table Tag Read Accesses: 14649048
L1 RST Tag Write Accesses: 0
L1 RST Tag Read Accesses: 294083
L1 RR Filter Write Accesses: 0
L1 RR Filter Read Accesses: 82820
test: 2352
L2 IP Table Read Accesses: 4815610
L2 IP Table Write Accesses: 6000974
L2 IP Table Tag Read Accesses: 3699011
L2 IP Table Tag Write Accesses: 3699011

DRAM Statistics
 CHANNEL 0
 RQ ROW_BUFFER_HIT:     103144  ROW_BUFFER_MISS:      99935
 DBUS_CONGESTED:        224
 WQ ROW_BUFFER_HIT:      11359  ROW_BUFFER_MISS:      22214  FULL:          0

 AVG_CONGESTED_CYCLE: 4
 All warmup complete: 2
Channel 0 Bank busy for read cycles: 0
Channel 0 Bank busy for write cycles: 0
Channel 0
Rank 0
0banks busy for read cycles: 42296801
0banks busy for write cycles: 12050
1banks busy for read cycles: 5346515
1banks busy for write cycles: 1623623
2banks busy for read cycles: 2094071
2banks busy for write cycles: 539221
3banks busy for read cycles: 1277199
3banks busy for write cycles: 276763
4banks busy for read cycles: 750980
4banks busy for write cycles: 189232
5banks busy for read cycles: 380766
5banks busy for write cycles: 115760
6banks busy for read cycles: 191286
6banks busy for write cycles: 80174
7banks busy for read cycles: 97716
7banks busy for write cycles: 44803
8banks busy for read cycles: 5465
8banks busy for write cycles: 14674

CPU 0 Branch Prediction Accuracy: 99.2795% MPKI: 0.0593 Average ROB Occupancy at Mispredict: 16.3693
Branch types
NOT_BRANCH: 49588170 99.1763%
BRANCH_DIRECT_JUMP: 48856 0.097712%
BRANCH_INDIRECT: 10100 0.0202%
BRANCH_CONDITIONAL: 253148 0.506296%
BRANCH_DIRECT_CALL: 49700 0.0994%
BRANCH_INDIRECT_CALL: 3 6e-06%
BRANCH_RETURN: 49703 0.099406%
BRANCH_OTHER: 0 0%

@sumon_overall_L1D      2955         5         5     23164     26169     58493     58493
@Sumon_Early_by_class_L1D      2548        14        48         0
@Sumon_Late_by_class_L1D         2         3         0         0

@Sumon_Early_by_cycle_L1D        20        14        15         7         3        16        12        21       190      2613        25        19
@Sumon_Late_by_cycle_L1D         1         2         1         0         1         0
@Sumon_Early_stream_L1D        18         9         9         4         2        12         8        17       160      2287        12        10
@Sumon_Early_CS_L1D         0         1         5         1         1         0         0         0         0         6         0         0
@Sumon_Early_CPLX_L1D         1         0         1         2         0         3         1         3         3        18         7         9
@Sumon_Late_stream_L1D         0         2         0         0         0         0
@Sumon_Late_CS_L1D         1         0         1         0         1         0
@Sumon_Late_CPLX_L1D         0         0         0         0         0         0
@sumon_overall_L2C    216957       105         0      8873    225871   2513267   2543929
@Sumon_Early_by_class_L2C     12767        28        21         0
@Sumon_Late_by_class_L2C         0         0         0         0

@Sumon_Early_by_cycle_L2C        48         2         3         2         3         7       257       490      9030    200058      6837       220
@Sumon_Late_by_cycle_L2C         0        44        60         1         0         0
@Sumon_Early_stream_L2C         0         0         0         0         0         0         0         6       588     12121        48         4
@Sumon_Early_CS_L2C         0         0         0         0         0         0         0         1         0        26         0         1
@Sumon_Early_CPLX_L2C         0         0         0         0         0         0         0         0         1         8         4         8
@Sumon_Late_stream_L2C         0         0         0         0         0         0
@Sumon_Late_CS_L2C         0         0         0         0         0         0
@Sumon_Late_CPLX_L2C         0         0         0         0         0         0
DRAM PAGES: 1048576
Allocated PAGES: 3837
