
*** ChampSim Multicore Out-of-Order Simulator ***

Warmup Instructions: 10000000
Simulation Instructions: 50000000
Number of CPUs: 1
LLC sets: 2048
LLC ways: 16
Off-chip DRAM Size: 4096 MB Channels: 1 Width: 64-bit Data Rate: 6400 MT/s
CPU 0 runs traces/SPEC2017/620.omnetpp_s-874B.champsimtrace.xz
.xz
CPU 0 Bimodal branch predictor
BTB has LRU replacement policy
ITLB has LRU replacement policy
DTLB has LRU replacement policy
STLB has LRU replacement policy
L1I has LRU replacement policy
IP Table Entries: 256
L1D has LRU replacement policy
IP_Table L2 entries: 256
L2C has LRU replacement policy
Initialize SRRIP state
Heartbeat CPU 0 instructions: 10000001 cycles: 3906443 heartbeat IPC: 2.55987 cumulative IPC: 2.55987 (Simulation time: 0 hr 13 min 19 sec) 

Warmup complete CPU 0 instructions: 10000001 cycles: 3906443 (Simulation time: 0 hr 13 min 19 sec) 

Heartbeat CPU 0 instructions: 20000000 cycles: 48490039 heartbeat IPC: 0.224298 cumulative IPC: 0.224298 (Simulation time: 0 hr 27 min 1 sec) 
Heartbeat CPU 0 instructions: 30000002 cycles: 93059108 heartbeat IPC: 0.224371 cumulative IPC: 0.224334 (Simulation time: 0 hr 40 min 28 sec) 
Heartbeat CPU 0 instructions: 40000000 cycles: 137945694 heartbeat IPC: 0.222784 cumulative IPC: 0.223815 (Simulation time: 0 hr 53 min 25 sec) 
Heartbeat CPU 0 instructions: 50000001 cycles: 182764344 heartbeat IPC: 0.223121 cumulative IPC: 0.223641 (Simulation time: 1 hr 1 min 53 sec) 
Heartbeat CPU 0 instructions: 60000001 cycles: 227359207 heartbeat IPC: 0.224241 cumulative IPC: 0.223761 (Simulation time: 1 hr 7 min 0 sec) 
Finished CPU 0 instructions: 50000000 cycles: 223452764 cumulative IPC: 0.223761 (Simulation time: 1 hr 7 min 0 sec) 

ChampSim completed all CPUs

Region of Interest Statistics

CPU 0 cumulative IPC: 0.223761 instructions: 50000000 cycles: 223452764
ITLB TOTAL     ACCESS:    8265550  HIT:    8185923  MISS:      79627  HIT %:    99.0366  MISS %:    0.96336   MPKI: 1.59254
ITLB LOAD TRANSLATION ACCESS:    8265550  HIT:    8185923  MISS:      79627  HIT %:    99.0366  MISS %:    0.96336   MPKI: 1.59254
ITLB PREFETCH  REQUESTED:          0  ISSUED:          0  USEFUL:          0  USELESS:          0
ITLB USEFUL LOAD PREFETCHES:          0 PREFETCH ISSUED TO LOWER LEVEL:          0  ACCURACY: -nan
ITLB TIMELY PREFETCHES:          0 LATE PREFETCHES: 0 DROPPED PREFETCHES: 0
ITLB PREFETCHES SAME FILL-ORIGIN LEVEL: 0 DIFFERENT FILL-ORIGIN LEVEL: 0
ITLB AVERAGE MISS LATENCY: 9.83724 cycles
ITLB RQ	ACCESS:    9320765	FORWARD:          0	MERGED:    1030854	TO_CACHE:    8289911

ITLB_Dead_block_count 79623 4
ITLB_inaccurate_prefetch_count 0 0
Interactions: positive negative neutral
ITLB_interactions 0 0 0
ITLB_positive 0 0 0
ITLB_negative 0 0 0
ITLB_neutral 0 0 0 0 0 0
DTLB TOTAL     ACCESS:   19538779  HIT:   18579230  MISS:     959549  HIT %:     95.089  MISS %:      4.911   MPKI: 19.191
DTLB LOAD TRANSLATION ACCESS:   19538779  HIT:   18579230  MISS:     959549  HIT %:     95.089  MISS %:      4.911   MPKI: 19.191
DTLB PREFETCH  REQUESTED:          0  ISSUED:          0  USEFUL:          0  USELESS:          0
DTLB USEFUL LOAD PREFETCHES:          0 PREFETCH ISSUED TO LOWER LEVEL:          0  ACCURACY: -nan
DTLB TIMELY PREFETCHES:          0 LATE PREFETCHES: 0 DROPPED PREFETCHES: 0
DTLB PREFETCHES SAME FILL-ORIGIN LEVEL: 0 DIFFERENT FILL-ORIGIN LEVEL: 0
DTLB AVERAGE MISS LATENCY: 25.8744 cycles
DTLB RQ	ACCESS:   22017974	FORWARD:          0	MERGED:    2464432	TO_CACHE:   19553542

DTLB_Dead_block_count 959546 4
DTLB_inaccurate_prefetch_count 0 0
Interactions: positive negative neutral
DTLB_interactions 0 0 0
DTLB_positive 0 0 0
DTLB_negative 0 0 0
DTLB_neutral 0 0 0 0 0 0
STLB TOTAL     ACCESS:    2862292  HIT:    2646543  MISS:     215749  HIT %:    92.4624  MISS %:    7.53763   MPKI: 4.31498
STLB LOAD TRANSLATION ACCESS:    1039176  HIT:     823427  MISS:     215749  HIT %:    79.2385  MISS %:    20.7615   MPKI: 4.31498
STLB TRANSLATION FROM L1D PREFETCHER ACCESS:    1823116  HIT:    1823116  MISS:          0  HIT %:        100  MISS %:          0   MPKI: 0
STLB PREFETCH  REQUESTED:          0  ISSUED:          0  USEFUL:          0  USELESS:          0
STLB USEFUL LOAD PREFETCHES:          0 PREFETCH ISSUED TO LOWER LEVEL:          0  ACCURACY: -nan
STLB TIMELY PREFETCHES:          0 LATE PREFETCHES: 0 DROPPED PREFETCHES: 0
STLB PREFETCHES SAME FILL-ORIGIN LEVEL: 0 DIFFERENT FILL-ORIGIN LEVEL: 0
STLB AVERAGE MISS LATENCY: 75.0375 cycles
STLB RQ	ACCESS:    3288236	FORWARD:          0	MERGED:     425943	TO_CACHE:    2862293

STLB_Dead_block_count 215745 4
STLB_inaccurate_prefetch_count 0 0
Interactions: positive negative neutral
STLB_interactions 0 0 0
STLB_positive 0 0 0
STLB_negative 0 0 0
STLB_neutral 0 0 0 0 0 0
STLB Hit, L1D data hit: 0
STLB Hit, L2C data hit: 0
STLB Hit, LLC data hit: 0
STLB Hit, LLC data miss: 0
STLB STLB hints to L2: 0
L1D TOTAL     ACCESS:   23940830  HIT:   22282127  MISS:    1658703  HIT %:    93.0717  MISS %:    6.92834   MPKI: 33.1741
L1D LOAD      ACCESS:   12707270  HIT:   11962079  MISS:     745191  HIT %:    94.1357  MISS %:    5.86429   MPKI: 14.9038
L1D RFO       ACCESS:    9054219  HIT:    8943939  MISS:     110280  HIT %:     98.782  MISS %:      1.218   MPKI: 2.2056
L1D PREFETCH  ACCESS:    2179341  HIT:    1376109  MISS:     803232  HIT %:    63.1434  MISS %:    36.8566   MPKI: 16.0646
L1D PREFETCH  REQUESTED:    4498617  ISSUED:    4498613  USEFUL:     112717  USELESS:     690455
L1D USEFUL LOAD PREFETCHES:     112717 PREFETCH ISSUED TO LOWER LEVEL:     809397  ACCURACY: 13.926
L1D TIMELY PREFETCHES:     112717 LATE PREFETCHES: 22592 DROPPED PREFETCHES: 0
L1D PREFETCHES SAME FILL-ORIGIN LEVEL: 809397 DIFFERENT FILL-ORIGIN LEVEL: 0
L1D AVERAGE MISS LATENCY: 431987 cycles
L1D RQ	ACCESS:   16236050	FORWARD:          0	MERGED:    2799023	TO_CACHE:   12811895
L1D WQ	ACCESS:    9281775	FORWARD:     625627	MERGED:      75696	TO_CACHE:    9206079
L1D PQ	ACCESS:    2249554	FORWARD:          0	MERGED:          0	TO_CACHE:    2249059

L1D_Dead_block_count 815 744376
L1D_inaccurate_prefetch_count 633619 175778
Interactions: positive negative neutral
L1D_interactions 337804 421723 399585
L1D_positive 87 280903 56814
L1D_negative 366617 76 55030
L1D_neutral 101601 74631 352 270 207326 15405
L1D UNIQUE REGIONS ACCESSED: 0
L1D REGIONS CONFLICTS: 0
L1D Cross Page Prefetch Requests: 0
L1D Same Page Prefetch Requests: 2671257
L1D ROI Sum of L1D PQ occupancy: 29209162
L1D PREFETCHES PUSHED FROM L2C: 0
L1I TOTAL     ACCESS:    9314258  HIT:    9295684  MISS:      18574  HIT %:    99.8006  MISS %:   0.199415   MPKI: 0.37148
L1I LOAD      ACCESS:    9314258  HIT:    9295684  MISS:      18574  HIT %:    99.8006  MISS %:   0.199415   MPKI: 0.37148
L1I PREFETCH  REQUESTED:          0  ISSUED:          0  USEFUL:          0  USELESS:          0
L1I USEFUL LOAD PREFETCHES:          0 PREFETCH ISSUED TO LOWER LEVEL:          0  ACCURACY: -nan
L1I TIMELY PREFETCHES:          0 LATE PREFETCHES: 0 DROPPED PREFETCHES: 0
L1I PREFETCHES SAME FILL-ORIGIN LEVEL: 0 DIFFERENT FILL-ORIGIN LEVEL: 0
L1I AVERAGE MISS LATENCY: 27.0664 cycles
L1I RQ	ACCESS:   14345881	FORWARD:          0	MERGED:    5025116	TO_CACHE:    9320765

L1I_Dead_block_count 18570 4
L1I_inaccurate_prefetch_count 0 0
Interactions: positive negative neutral
L1I_interactions 0 0 0
L1I_positive 0 0 0
L1I_negative 0 0 0
L1I_neutral 0 0 0 0 0 0
BTB TOTAL     ACCESS:    7896296  HIT:    7421687  MISS:     474609  HIT %:    93.9895  MISS %:    6.01053   MPKI: 9.49218
BTB BRANCH_DIRECT_JUMP	ACCESS:     569513  HIT:     569409  MISS:        104
BTB BRANCH_INDIRECT	ACCESS:     168336  HIT:     146852  MISS:      21484
BTB BRANCH_CONDITIONAL	ACCESS:    4189086  HIT:    4188659  MISS:        427
BTB BRANCH_DIRECT_CALL	ACCESS:     886019  HIT:     885794  MISS:        225
BTB BRANCH_INDIRECT_CALL	ACCESS:     598662  HIT:     596661  MISS:       2001
BTB BRANCH_RETURN	ACCESS:    1484680  HIT:    1034312  MISS:     450368
BTB BRANCH_OTHER ACCESS:          0  HIT:          0  MISS:          0

L2C TOTAL     ACCESS:    2540502  HIT:    1199878  MISS:    1340624  HIT %:      47.23  MISS %:      52.77   MPKI: 26.8125
L2C LOAD      ACCESS:     763739  HIT:     261530  MISS:     502209  HIT %:    34.2434  MISS %:    65.7566   MPKI: 10.0442
L2C DATA LOAD MPKI: 9.94046
L2C INSTRUCTION LOAD MPKI: 0.10372
L2C RFO       ACCESS:     104111  HIT:      24218  MISS:      79893  HIT %:    23.2617  MISS %:    76.7383   MPKI: 1.59786
L2C PREFETCH  ACCESS:     889305  HIT:     270702  MISS:     618603  HIT %:    30.4397  MISS %:    69.5603   MPKI: 12.3721
L2C DATA PREFETCH MPKI: 12.3721
L2C INSTRUCTION PREFETCH MPKI: 0
L2C WRITEBACK ACCESS:     477751  HIT:     475753  MISS:       1998  HIT %:    99.5818  MISS %:   0.418209   MPKI: 0.03996
L2C LOAD TRANSLATION ACCESS:     305596  HIT:     167675  MISS:     137921  HIT %:    54.8682  MISS %:    45.1318   MPKI: 2.75842
L2C PREFETCH  REQUESTED:      85652  ISSUED:      85652  USEFUL:      42523  USELESS:     576034
L2C USEFUL LOAD PREFETCHES:      42523 PREFETCH ISSUED TO LOWER LEVEL:     619538  ACCURACY: 6.86366
L2C TIMELY PREFETCHES:      42523 LATE PREFETCHES: 936 DROPPED PREFETCHES: 0
L2C PREFETCHES SAME FILL-ORIGIN LEVEL: 47624 DIFFERENT FILL-ORIGIN LEVEL: 0
L2C AVERAGE MISS LATENCY: 146.257 cycles
L2C RQ	ACCESS:    1173475	FORWARD:          0	MERGED:          0	TO_CACHE:    1173446
L2C WQ	ACCESS:     477751	FORWARD:         35	MERGED:          0	TO_CACHE:     477751
L2C PQ	ACCESS:     895049	FORWARD:          0	MERGED:       1736	TO_CACHE:     893307

L2C_Dead_block_count 517146 201941
L2C_inaccurate_prefetch_count 550674 68864
Interactions: positive negative neutral
L2C_interactions 85182 92161 749769
L2C_positive 9656 66207 9319
L2C_negative 75607 8008 8546
L2C_neutral 2787 2303 263844 231991 248544 300
L2C Instructions Evicting Data 4580
L2C Translations Evicting Data 124213
L2C Data Evicting Data 1066774
L2C Instructions Evicting Instructions 93
L2C Translations Evicting Instructions 528
L2C Data Evicting Instructions 4578
L2C Instructions Evicting Translations 513
L2C Translations Evicting Translations 13180
L2C Data Evicting Translations 124167
L2C Dense regions hint from L2: 0
PSCL5 TOTAL     ACCESS:     215749  HIT:     215749  MISS:          0  HIT %:        100  MISS %:          0   MPKI: 0
PSCL5 LOAD TRANSLATION ACCESS:     215749  HIT:     215749  MISS:          0  HIT %:        100  MISS %:          0   MPKI: 0
PSCL5 PREFETCH  REQUESTED:          0  ISSUED:          0  USEFUL:          0  USELESS:          0
PSCL5 USEFUL LOAD PREFETCHES:          0 PREFETCH ISSUED TO LOWER LEVEL:          0  ACCURACY: -nan
PSCL5 TIMELY PREFETCHES:          0 LATE PREFETCHES: 0 DROPPED PREFETCHES: 0
PSCL5 PREFETCHES SAME FILL-ORIGIN LEVEL: 0 DIFFERENT FILL-ORIGIN LEVEL: 0

PSCL5_Dead_block_count 0 0
PSCL5_inaccurate_prefetch_count 0 0
Interactions: positive negative neutral
PSCL5_interactions 0 0 0
PSCL5_positive 0 0 0
PSCL5_negative 0 0 0
PSCL5_neutral 0 0 0 0 0 0
PSCL4 TOTAL     ACCESS:     215749  HIT:     215749  MISS:          0  HIT %:        100  MISS %:          0   MPKI: 0
PSCL4 LOAD TRANSLATION ACCESS:     215749  HIT:     215749  MISS:          0  HIT %:        100  MISS %:          0   MPKI: 0
PSCL4 PREFETCH  REQUESTED:          0  ISSUED:          0  USEFUL:          0  USELESS:          0
PSCL4 USEFUL LOAD PREFETCHES:          0 PREFETCH ISSUED TO LOWER LEVEL:          0  ACCURACY: -nan
PSCL4 TIMELY PREFETCHES:          0 LATE PREFETCHES: 0 DROPPED PREFETCHES: 0
PSCL4 PREFETCHES SAME FILL-ORIGIN LEVEL: 0 DIFFERENT FILL-ORIGIN LEVEL: 0

PSCL4_Dead_block_count 0 0
PSCL4_inaccurate_prefetch_count 0 0
Interactions: positive negative neutral
PSCL4_interactions 0 0 0
PSCL4_positive 0 0 0
PSCL4_negative 0 0 0
PSCL4_neutral 0 0 0 0 0 0
PSCL3 TOTAL     ACCESS:     215749  HIT:     215749  MISS:          0  HIT %:        100  MISS %:          0   MPKI: 0
PSCL3 LOAD TRANSLATION ACCESS:     215749  HIT:     215749  MISS:          0  HIT %:        100  MISS %:          0   MPKI: 0
PSCL3 PREFETCH  REQUESTED:          0  ISSUED:          0  USEFUL:          0  USELESS:          0
PSCL3 USEFUL LOAD PREFETCHES:          0 PREFETCH ISSUED TO LOWER LEVEL:          0  ACCURACY: -nan
PSCL3 TIMELY PREFETCHES:          0 LATE PREFETCHES: 0 DROPPED PREFETCHES: 0
PSCL3 PREFETCHES SAME FILL-ORIGIN LEVEL: 0 DIFFERENT FILL-ORIGIN LEVEL: 0

PSCL3_Dead_block_count 0 0
PSCL3_inaccurate_prefetch_count 0 0
Interactions: positive negative neutral
PSCL3_interactions 0 0 0
PSCL3_positive 0 0 0
PSCL3_negative 0 0 0
PSCL3_neutral 0 0 0 0 0 0
PSCL2 TOTAL     ACCESS:     215749  HIT:     125902  MISS:      89847  HIT %:    58.3558  MISS %:    41.6442   MPKI: 1.79694
PSCL2 LOAD TRANSLATION ACCESS:     215749  HIT:     125902  MISS:      89847  HIT %:    58.3558  MISS %:    41.6442   MPKI: 1.79694
PSCL2 PREFETCH  REQUESTED:          0  ISSUED:          0  USEFUL:          0  USELESS:          0
PSCL2 USEFUL LOAD PREFETCHES:          0 PREFETCH ISSUED TO LOWER LEVEL:          0  ACCURACY: -nan
PSCL2 TIMELY PREFETCHES:          0 LATE PREFETCHES: 0 DROPPED PREFETCHES: 0
PSCL2 PREFETCHES SAME FILL-ORIGIN LEVEL: 0 DIFFERENT FILL-ORIGIN LEVEL: 0

PSCL2_Dead_block_count 0 0
PSCL2_inaccurate_prefetch_count 0 0
Interactions: positive negative neutral
PSCL2_interactions 0 0 0
PSCL2_positive 0 0 0
PSCL2_negative 0 0 0
PSCL2_neutral 0 0 0 0 0 0
LLC TOTAL     ACCESS:    1695366  HIT:     633656  MISS:    1061710  HIT %:    37.3758  MISS %:    62.6242   MPKI: 21.2342
LLC LOAD      ACCESS:     501335  HIT:     160396  MISS:     340939  HIT %:    31.9938  MISS %:    68.0062   MPKI: 6.81878
LLC RFO       ACCESS:      79829  HIT:      41972  MISS:      37857  HIT %:    52.5774  MISS %:    47.4226   MPKI: 0.75714
LLC PREFETCH  ACCESS:     619538  HIT:      65805  MISS:     553733  HIT %:    10.6216  MISS %:    89.3784   MPKI: 11.0747
LLC WRITEBACK ACCESS:     356743  HIT:     246276  MISS:     110467  HIT %:    69.0346  MISS %:    30.9654   MPKI: 2.20934
LLC LOAD TRANSLATION ACCESS:     137921  HIT:     119207  MISS:      18714  HIT %:    86.4314  MISS %:    13.5686   MPKI: 0.37428
LLC PREFETCH  REQUESTED:          0  ISSUED:          0  USEFUL:       2202  USELESS:     553834
LLC USEFUL LOAD PREFETCHES:       2202 PREFETCH ISSUED TO LOWER LEVEL:     553732  ACCURACY: 0.397665
LLC TIMELY PREFETCHES:       2202 LATE PREFETCHES: 0 DROPPED PREFETCHES: 0
LLC PREFETCHES SAME FILL-ORIGIN LEVEL: 0 DIFFERENT FILL-ORIGIN LEVEL: 0
LLC AVERAGE MISS LATENCY: 146.528 cycles
LLC RQ	ACCESS:     719087	FORWARD:          0	MERGED:          0	TO_CACHE:     719085
LLC WQ	ACCESS:     356743	FORWARD:          3	MERGED:          0	TO_CACHE:     356743
LLC PQ	ACCESS:     619538	FORWARD:          0	MERGED:          0	TO_CACHE:     619537

LLC_Dead_block_count 191624 205886
LLC_inaccurate_prefetch_count 550524 3208
Interactions: positive negative neutral
LLC_interactions 24068 83501 651748
LLC_positive 22 24004 42
LLC_negative 83432 30 39
LLC_neutral 17 1 181518 181549 288663 0
LLC Dense regions hint to LLC: 0

RAW hits: 653010
Loads Generated: 16889060
Loads sent to L1D: 16236050
Stores Generated: 9281774
Stores sent to L1D: 9281775
Major fault: 0 Minor fault: 45883
Allocated PAGES: 45883

stream: 
stream:times selected: 3995677
stream:pref_filled: 631498
stream:pref_useful: 116648
stream:pref_late: 15407
stream:misses: 150557
stream:misses_by_poll: 0

CS: 
CS:times selected: 32428
CS:pref_filled: 12377
CS:pref_useful: 1949
CS:pref_late: 1
CS:misses: 803
CS:misses_by_poll: 2

CPLX: 
CPLX:times selected: 3966098
CPLX:pref_filled: 302388
CPLX:pref_useful: 14320
CPLX:pref_late: 628
CPLX:misses: 486394
CPLX:misses_by_poll: 630

NL_L1: 
NL:times selected: 17376
NL:pref_filled: 6255
NL:pref_useful: 1234
NL:pref_late: 192
NL:misses: 5316
NL:misses_by_poll: 1

total selections: 8011579
total_filled: 803232
total_useful: 112717
total_late: 16484
total_polluted: 633
total_misses_after_warmup: 849814
conflicts: 1771096
Degree Incremented Times: 0
Degree Decremented Times: 276804

L1 IP Table Write Accesses: 9534705
L1 IP Table Read Accesses: 7763609
L1 RST Write Accesses: 3421659
L1 RST Read Accesses: 6843318
L1 CSPT Write Accesses: 3421659
L1 CSPT Read Accesses: 6817542
L1 RR Filter Tag Write Accesses: 2249558
L1 RR Filter Tag Read Accesses: 127336278
L1 IP Table Tag Write Accesses: 12811893
L1 IP Table Tag Read Accesses: 12811893
L1 RST Tag Write Accesses: 0
L1 RST Tag Read Accesses: 29503284
L1 RR Filter Write Accesses: 0
L1 RR Filter Read Accesses: 4392293
test: 1931427
L2 IP Table Read Accesses: 3015593
L2 IP Table Write Accesses: 2374613
L2 IP Table Tag Read Accesses: 1551123
L2 IP Table Tag Write Accesses: 1551123

DRAM Statistics
 CHANNEL 0
 RQ ROW_BUFFER_HIT:     121873  ROW_BUFFER_MISS:     829362
 DBUS_CONGESTED:        251
 WQ ROW_BUFFER_HIT:      47376  ROW_BUFFER_MISS:     175547  FULL:          0

 AVG_CONGESTED_CYCLE: 5
 All warmup complete: 2
Channel 0 Bank busy for read cycles: 0
Channel 0 Bank busy for write cycles: 0
Channel 0
Rank 0
0banks busy for read cycles: 116320250
0banks busy for write cycles: 122755
1banks busy for read cycles: 43814112
1banks busy for write cycles: 18218570
2banks busy for read cycles: 23406182
2banks busy for write cycles: 6503387
3banks busy for read cycles: 7777324
3banks busy for write cycles: 2303753
4banks busy for read cycles: 2838024
4banks busy for write cycles: 780523
5banks busy for read cycles: 797671
5banks busy for write cycles: 265393
6banks busy for read cycles: 168260
6banks busy for write cycles: 83595
7banks busy for read cycles: 24409
7banks busy for write cycles: 22136
8banks busy for read cycles: 2523
8banks busy for write cycles: 3898

CPU 0 Branch Prediction Accuracy: 95.851% MPKI: 8.63412 Average ROB Occupancy at Mispredict: 29.3713
Branch types
NOT_BRANCH: 39594523 79.189%
BRANCH_DIRECT_JUMP: 569513 1.13903%
BRANCH_INDIRECT: 168336 0.336672%
BRANCH_CONDITIONAL: 6697939 13.3959%
BRANCH_DIRECT_CALL: 886019 1.77204%
BRANCH_INDIRECT_CALL: 598662 1.19732%
BRANCH_RETURN: 1484680 2.96936%
BRANCH_OTHER: 0 0%

@sumon_overall_L1D    112717     22592     22592    690455    803232   4498613   4498617
@Sumon_Early_by_class_L1D     97127      1570     12181       137
@Sumon_Late_by_class_L1D     12163         0       547       137

@Sumon_Early_by_cycle_L1D     20203      7365      5760      4517      2263     15465     17129      8350      6089     11477      8061      6038
@Sumon_Late_by_cycle_L1D       720      2026       908      2871      6563         0
@Sumon_Early_stream_L1D     19186      6598      4950      3911      1925     13524     14915      6869      4692      9192      6320      5045
@Sumon_Early_CS_L1D         2        22        50        27         7         4       804       100       429        58        25        42
@Sumon_Early_CPLX_L1D       595       484       670       487       295      1682      1113      1283       923      2090      1649       910
@Sumon_Late_stream_L1D       656      1775       819      2692      6221         0
@Sumon_Late_CS_L1D         0         0         0         0         0         0
@Sumon_Late_CPLX_L1D        44       101        51       104       247         0
@sumon_overall_L2C     42523       936         0    576034    618603     85652     85652
@Sumon_Early_by_class_L2C     23731        95      7441         0
@Sumon_Late_by_class_L2C         0         0         0         0

@Sumon_Early_by_cycle_L2C       831       786       529       672       381      2514      2541       609      1144       331      2058     30127
@Sumon_Late_by_cycle_L2C        84        67       181       166       438         0
@Sumon_Early_stream_L2C         0         0         0         0         0         0         0         0         1       101      1403     22226
@Sumon_Early_CS_L2C         0         0         0         0         0         0         0         0         0         0        14        81
@Sumon_Early_CPLX_L2C         0         0         0         0         0         0         0         0         0        29       430      6982
@Sumon_Late_stream_L2C         0         0         0         0         0         0
@Sumon_Late_CS_L2C         0         0         0         0         0         0
@Sumon_Late_CPLX_L2C         0         0         0         0         0         0
DRAM PAGES: 1048576
Allocated PAGES: 45883
