
*** ChampSim Multicore Out-of-Order Simulator ***

Warmup Instructions: 10000000
Simulation Instructions: 50000000
Number of CPUs: 1
LLC sets: 2048
LLC ways: 16
Off-chip DRAM Size: 4096 MB Channels: 1 Width: 64-bit Data Rate: 6400 MT/s
CPU 0 runs traces/SPEC2017/649.fotonik3d_s-8225B.champsimtrace.xz
.xz
CPU 0 Bimodal branch predictor
BTB has LRU replacement policy
ITLB has LRU replacement policy
DTLB has LRU replacement policy
STLB has LRU replacement policy
L1I has LRU replacement policy
IP Table Entries: 256
L1D has LRU replacement policy
IP_Table L2 entries: 256
L2C has LRU replacement policy
Initialize SRRIP state
Heartbeat CPU 0 instructions: 10000001 cycles: 2903767 heartbeat IPC: 3.4438 cumulative IPC: 3.4438 (Simulation time: 0 hr 10 min 32 sec) 

Warmup complete CPU 0 instructions: 10000001 cycles: 2903767 (Simulation time: 0 hr 10 min 32 sec) 

Heartbeat CPU 0 instructions: 20000001 cycles: 12885587 heartbeat IPC: 1.00182 cumulative IPC: 1.00182 (Simulation time: 0 hr 18 min 20 sec) 
Heartbeat CPU 0 instructions: 30000002 cycles: 22863926 heartbeat IPC: 1.00217 cumulative IPC: 1.002 (Simulation time: 0 hr 26 min 15 sec) 
Heartbeat CPU 0 instructions: 40000002 cycles: 32844116 heartbeat IPC: 1.00198 cumulative IPC: 1.00199 (Simulation time: 0 hr 34 min 9 sec) 
Heartbeat CPU 0 instructions: 50000003 cycles: 42822286 heartbeat IPC: 1.00219 cumulative IPC: 1.00204 (Simulation time: 0 hr 42 min 1 sec) 
Heartbeat CPU 0 instructions: 60000000 cycles: 52801632 heartbeat IPC: 1.00207 cumulative IPC: 1.00205 (Simulation time: 0 hr 49 min 44 sec) 
Finished CPU 0 instructions: 50000003 cycles: 49897866 cumulative IPC: 1.00205 (Simulation time: 0 hr 49 min 44 sec) 

ChampSim completed all CPUs

Region of Interest Statistics

CPU 0 cumulative IPC: 1.00205 instructions: 50000003 cycles: 49897866
ITLB TOTAL     ACCESS:    7017684  HIT:    7017684  MISS:          0  HIT %:        100  MISS %:          0   MPKI: 0
ITLB LOAD TRANSLATION ACCESS:    7017684  HIT:    7017684  MISS:          0  HIT %:        100  MISS %:          0   MPKI: 0
ITLB PREFETCH  REQUESTED:          0  ISSUED:          0  USEFUL:          0  USELESS:          0
ITLB USEFUL LOAD PREFETCHES:          0 PREFETCH ISSUED TO LOWER LEVEL:          0  ACCURACY: -nan
ITLB TIMELY PREFETCHES:          0 LATE PREFETCHES: 0 DROPPED PREFETCHES: 0
ITLB PREFETCHES SAME FILL-ORIGIN LEVEL: 0 DIFFERENT FILL-ORIGIN LEVEL: 0
ITLB AVERAGE MISS LATENCY: -nan cycles
ITLB RQ	ACCESS:    8772748	FORWARD:          0	MERGED:    1755063	TO_CACHE:    7017685

ITLB_Dead_block_count 0 0
ITLB_inaccurate_prefetch_count 0 0
Interactions: positive negative neutral
ITLB_interactions 0 0 0
ITLB_positive 0 0 0
ITLB_negative 0 0 0
ITLB_neutral 0 0 0 0 0 0
DTLB TOTAL     ACCESS:    8129626  HIT:    8117834  MISS:      11792  HIT %:     99.855  MISS %:    0.14505   MPKI: 0.23584
DTLB LOAD TRANSLATION ACCESS:    8129626  HIT:    8117834  MISS:      11792  HIT %:     99.855  MISS %:    0.14505   MPKI: 0.23584
DTLB PREFETCH  REQUESTED:          0  ISSUED:          0  USEFUL:          0  USELESS:          0
DTLB USEFUL LOAD PREFETCHES:          0 PREFETCH ISSUED TO LOWER LEVEL:          0  ACCURACY: -nan
DTLB TIMELY PREFETCHES:          0 LATE PREFETCHES: 0 DROPPED PREFETCHES: 0
DTLB PREFETCHES SAME FILL-ORIGIN LEVEL: 0 DIFFERENT FILL-ORIGIN LEVEL: 0
DTLB AVERAGE MISS LATENCY: 88.3748 cycles
DTLB RQ	ACCESS:   12579170	FORWARD:          0	MERGED:    4448866	TO_CACHE:    8130304

DTLB_Dead_block_count 11788 4
DTLB_inaccurate_prefetch_count 0 0
Interactions: positive negative neutral
DTLB_interactions 0 0 0
DTLB_positive 0 0 0
DTLB_negative 0 0 0
DTLB_neutral 0 0 0 0 0 0
STLB TOTAL     ACCESS:     609319  HIT:     602461  MISS:       6858  HIT %:    98.8745  MISS %:    1.12552   MPKI: 0.13716
STLB LOAD TRANSLATION ACCESS:      11792  HIT:       4934  MISS:       6858  HIT %:    41.8419  MISS %:    58.1581   MPKI: 0.13716
STLB TRANSLATION FROM L1D PREFETCHER ACCESS:     597527  HIT:     597527  MISS:          0  HIT %:        100  MISS %:          0   MPKI: 0
STLB PREFETCH  REQUESTED:          0  ISSUED:          0  USEFUL:          0  USELESS:          0
STLB USEFUL LOAD PREFETCHES:          0 PREFETCH ISSUED TO LOWER LEVEL:          0  ACCURACY: -nan
STLB TIMELY PREFETCHES:          0 LATE PREFETCHES: 0 DROPPED PREFETCHES: 0
STLB PREFETCHES SAME FILL-ORIGIN LEVEL: 0 DIFFERENT FILL-ORIGIN LEVEL: 0
STLB AVERAGE MISS LATENCY: 136.245 cycles
STLB RQ	ACCESS:     671741	FORWARD:          0	MERGED:      62422	TO_CACHE:     609319

STLB_Dead_block_count 6854 4
STLB_inaccurate_prefetch_count 0 0
Interactions: positive negative neutral
STLB_interactions 0 0 0
STLB_positive 0 0 0
STLB_negative 0 0 0
STLB_neutral 0 0 0 0 0 0
STLB Hit, L1D data hit: 0
STLB Hit, L2C data hit: 0
STLB Hit, LLC data hit: 0
STLB Hit, LLC data miss: 0
STLB STLB hints to L2: 0
L1D TOTAL     ACCESS:   13216982  HIT:   12552282  MISS:     664700  HIT %:    94.9709  MISS %:    5.02914   MPKI: 13.294
L1D LOAD      ACCESS:    9049276  HIT:    9032112  MISS:      17164  HIT %:    99.8103  MISS %:   0.189673   MPKI: 0.34328
L1D RFO       ACCESS:    3508978  HIT:    3508297  MISS:        681  HIT %:    99.9806  MISS %:  0.0194074   MPKI: 0.01362
L1D PREFETCH  ACCESS:     658728  HIT:      11873  MISS:     646855  HIT %:    1.80241  MISS %:    98.1976   MPKI: 12.9371
L1D PREFETCH  REQUESTED:    1319898  ISSUED:    1319898  USEFUL:     643847  USELESS:       3008
L1D USEFUL LOAD PREFETCHES:     643847 PREFETCH ISSUED TO LOWER LEVEL:     647089  ACCURACY: 99.499
L1D TIMELY PREFETCHES:     643847 LATE PREFETCHES: 4085 DROPPED PREFETCHES: 0
L1D PREFETCHES SAME FILL-ORIGIN LEVEL: 647089 DIFFERENT FILL-ORIGIN LEVEL: 0
L1D AVERAGE MISS LATENCY: 982.414 cycles
L1D RQ	ACCESS:   17541460	FORWARD:          0	MERGED:    8472485	TO_CACHE:    9068888
L1D WQ	ACCESS:    3510282	FORWARD:         87	MERGED:          0	TO_CACHE:    3510282
L1D PQ	ACCESS:     659949	FORWARD:          0	MERGED:          0	TO_CACHE:     659949

L1D_Dead_block_count 2 17162
L1D_inaccurate_prefetch_count 0 646875
Interactions: positive negative neutral
L1D_interactions 29 0 646839
L1D_positive 29 0 0
L1D_negative 0 0 0
L1D_neutral 643831 13 0 0 0 2995
L1D UNIQUE REGIONS ACCESSED: 0
L1D REGIONS CONFLICTS: 0
L1D Cross Page Prefetch Requests: 0
L1D Same Page Prefetch Requests: 791377
L1D ROI Sum of L1D PQ occupancy: 8671788
L1D PREFETCHES PUSHED FROM L2C: 0
L1I TOTAL     ACCESS:    8772746  HIT:    8772746  MISS:          0  HIT %:        100  MISS %:          0   MPKI: 0
L1I LOAD      ACCESS:    8772746  HIT:    8772746  MISS:          0  HIT %:        100  MISS %:          0   MPKI: 0
L1I PREFETCH  REQUESTED:          0  ISSUED:          0  USEFUL:          0  USELESS:          0
L1I USEFUL LOAD PREFETCHES:          0 PREFETCH ISSUED TO LOWER LEVEL:          0  ACCURACY: -nan
L1I TIMELY PREFETCHES:          0 LATE PREFETCHES: 0 DROPPED PREFETCHES: 0
L1I PREFETCHES SAME FILL-ORIGIN LEVEL: 0 DIFFERENT FILL-ORIGIN LEVEL: 0
L1I AVERAGE MISS LATENCY: -nan cycles
L1I RQ	ACCESS:   11406794	FORWARD:          0	MERGED:    2634046	TO_CACHE:    8772748

L1I_Dead_block_count 0 0
L1I_inaccurate_prefetch_count 0 0
Interactions: positive negative neutral
L1I_interactions 0 0 0
L1I_positive 0 0 0
L1I_negative 0 0 0
L1I_neutral 0 0 0 0 0 0
BTB TOTAL     ACCESS:     877290  HIT:     877281  MISS:          9  HIT %:     99.999  MISS %: 0.00102589   MPKI: 0.00018
BTB BRANCH_DIRECT_JUMP	ACCESS:        220  HIT:        218  MISS:          2
BTB BRANCH_INDIRECT	ACCESS:          0  HIT:          0  MISS:          0
BTB BRANCH_CONDITIONAL	ACCESS:     876630  HIT:     876627  MISS:          3
BTB BRANCH_DIRECT_CALL	ACCESS:        220  HIT:        218  MISS:          2
BTB BRANCH_INDIRECT_CALL	ACCESS:          0  HIT:          0  MISS:          0
BTB BRANCH_RETURN	ACCESS:        220  HIT:        218  MISS:          2
BTB BRANCH_OTHER ACCESS:          0  HIT:          0  MISS:          0

L2C TOTAL     ACCESS:    3968957  HIT:    3519234  MISS:     449723  HIT %:     88.669  MISS %:     11.331   MPKI: 8.99446
L2C LOAD      ACCESS:      17164  HIT:       9239  MISS:       7925  HIT %:    53.8278  MISS %:    46.1722   MPKI: 0.1585
L2C DATA LOAD MPKI: 0.1585
L2C INSTRUCTION LOAD MPKI: 0
L2C RFO       ACCESS:        661  HIT:        585  MISS:         76  HIT %:    88.5023  MISS %:    11.4977   MPKI: 0.00152
L2C PREFETCH  ACCESS:    3504907  HIT:    3064066  MISS:     440841  HIT %:    87.4222  MISS %:    12.5778   MPKI: 8.81682
L2C DATA PREFETCH MPKI: 8.81682
L2C INSTRUCTION PREFETCH MPKI: 0
L2C WRITEBACK ACCESS:     439365  HIT:     439365  MISS:          0  HIT %:        100  MISS %:          0   MPKI: 0
L2C LOAD TRANSLATION ACCESS:       6860  HIT:       5979  MISS:        881  HIT %:    87.1574  MISS %:    12.8426   MPKI: 0.01762
L2C PREFETCH  REQUESTED:    3307116  ISSUED:    3307079  USEFUL:       2437  USELESS:     438737
L2C USEFUL LOAD PREFETCHES:       2437 PREFETCH ISSUED TO LOWER LEVEL:     440854  ACCURACY: 0.552791
L2C TIMELY PREFETCHES:       2437 LATE PREFETCHES: 13 DROPPED PREFETCHES: 0
L2C PREFETCHES SAME FILL-ORIGIN LEVEL: 391949 DIFFERENT FILL-ORIGIN LEVEL: 0
L2C AVERAGE MISS LATENCY: 189.03 cycles
L2C RQ	ACCESS:      24685	FORWARD:          0	MERGED:          0	TO_CACHE:      24685
L2C WQ	ACCESS:     439365	FORWARD:          0	MERGED:          0	TO_CACHE:     439365
L2C PQ	ACCESS:    3953954	FORWARD:          0	MERGED:      80241	TO_CACHE:    3873713

L2C_Dead_block_count 3382 5487
L2C_inaccurate_prefetch_count 437671 3183
Interactions: positive negative neutral
L2C_interactions 3634 5213 433851
L2C_positive 8 549 3077
L2C_negative 2512 20 2681
L2C_neutral 16 31 1425 1257 431047 75
L2C Instructions Evicting Data 0
L2C Translations Evicting Data 880
L2C Data Evicting Data 447964
L2C Instructions Evicting Instructions 0
L2C Translations Evicting Instructions 0
L2C Data Evicting Instructions 0
L2C Instructions Evicting Translations 0
L2C Translations Evicting Translations 1
L2C Data Evicting Translations 878
L2C Dense regions hint from L2: 0
PSCL5 TOTAL     ACCESS:       6858  HIT:       6858  MISS:          0  HIT %:        100  MISS %:          0   MPKI: 0
PSCL5 LOAD TRANSLATION ACCESS:       6858  HIT:       6858  MISS:          0  HIT %:        100  MISS %:          0   MPKI: 0
PSCL5 PREFETCH  REQUESTED:          0  ISSUED:          0  USEFUL:          0  USELESS:          0
PSCL5 USEFUL LOAD PREFETCHES:          0 PREFETCH ISSUED TO LOWER LEVEL:          0  ACCURACY: -nan
PSCL5 TIMELY PREFETCHES:          0 LATE PREFETCHES: 0 DROPPED PREFETCHES: 0
PSCL5 PREFETCHES SAME FILL-ORIGIN LEVEL: 0 DIFFERENT FILL-ORIGIN LEVEL: 0

PSCL5_Dead_block_count 0 0
PSCL5_inaccurate_prefetch_count 0 0
Interactions: positive negative neutral
PSCL5_interactions 0 0 0
PSCL5_positive 0 0 0
PSCL5_negative 0 0 0
PSCL5_neutral 0 0 0 0 0 0
PSCL4 TOTAL     ACCESS:       6858  HIT:       6858  MISS:          0  HIT %:        100  MISS %:          0   MPKI: 0
PSCL4 LOAD TRANSLATION ACCESS:       6858  HIT:       6858  MISS:          0  HIT %:        100  MISS %:          0   MPKI: 0
PSCL4 PREFETCH  REQUESTED:          0  ISSUED:          0  USEFUL:          0  USELESS:          0
PSCL4 USEFUL LOAD PREFETCHES:          0 PREFETCH ISSUED TO LOWER LEVEL:          0  ACCURACY: -nan
PSCL4 TIMELY PREFETCHES:          0 LATE PREFETCHES: 0 DROPPED PREFETCHES: 0
PSCL4 PREFETCHES SAME FILL-ORIGIN LEVEL: 0 DIFFERENT FILL-ORIGIN LEVEL: 0

PSCL4_Dead_block_count 0 0
PSCL4_inaccurate_prefetch_count 0 0
Interactions: positive negative neutral
PSCL4_interactions 0 0 0
PSCL4_positive 0 0 0
PSCL4_negative 0 0 0
PSCL4_neutral 0 0 0 0 0 0
PSCL3 TOTAL     ACCESS:       6858  HIT:       6857  MISS:          1  HIT %:    99.9854  MISS %:  0.0145815   MPKI: 2e-05
PSCL3 LOAD TRANSLATION ACCESS:       6858  HIT:       6857  MISS:          1  HIT %:    99.9854  MISS %:  0.0145815   MPKI: 2e-05
PSCL3 PREFETCH  REQUESTED:          0  ISSUED:          0  USEFUL:          0  USELESS:          0
PSCL3 USEFUL LOAD PREFETCHES:          0 PREFETCH ISSUED TO LOWER LEVEL:          0  ACCURACY: -nan
PSCL3 TIMELY PREFETCHES:          0 LATE PREFETCHES: 0 DROPPED PREFETCHES: 0
PSCL3 PREFETCHES SAME FILL-ORIGIN LEVEL: 0 DIFFERENT FILL-ORIGIN LEVEL: 0

PSCL3_Dead_block_count 0 0
PSCL3_inaccurate_prefetch_count 0 0
Interactions: positive negative neutral
PSCL3_interactions 0 0 0
PSCL3_positive 0 0 0
PSCL3_negative 0 0 0
PSCL3_neutral 0 0 0 0 0 0
PSCL2 TOTAL     ACCESS:       6858  HIT:       6837  MISS:         21  HIT %:    99.6938  MISS %:   0.306212   MPKI: 0.00042
PSCL2 LOAD TRANSLATION ACCESS:       6858  HIT:       6837  MISS:         21  HIT %:    99.6938  MISS %:   0.306212   MPKI: 0.00042
PSCL2 PREFETCH  REQUESTED:          0  ISSUED:          0  USEFUL:          0  USELESS:          0
PSCL2 USEFUL LOAD PREFETCHES:          0 PREFETCH ISSUED TO LOWER LEVEL:          0  ACCURACY: -nan
PSCL2 TIMELY PREFETCHES:          0 LATE PREFETCHES: 0 DROPPED PREFETCHES: 0
PSCL2 PREFETCHES SAME FILL-ORIGIN LEVEL: 0 DIFFERENT FILL-ORIGIN LEVEL: 0

PSCL2_Dead_block_count 0 0
PSCL2_inaccurate_prefetch_count 0 0
Interactions: positive negative neutral
PSCL2_interactions 0 0 0
PSCL2_positive 0 0 0
PSCL2_negative 0 0 0
PSCL2_neutral 0 0 0 0 0 0
LLC TOTAL     ACCESS:     888090  HIT:      18264  MISS:     869826  HIT %:    2.05655  MISS %:    97.9435   MPKI: 17.3965
LLC LOAD      ACCESS:       7912  HIT:        417  MISS:       7495  HIT %:    5.27048  MISS %:    94.7295   MPKI: 0.1499
LLC RFO       ACCESS:         76  HIT:         76  MISS:          0  HIT %:        100  MISS %:          0   MPKI: 0
LLC PREFETCH  ACCESS:     440854  HIT:       9107  MISS:     431747  HIT %:    2.06576  MISS %:    97.9342   MPKI: 8.63494
LLC WRITEBACK ACCESS:     438367  HIT:       8649  MISS:     429718  HIT %:      1.973  MISS %:     98.027   MPKI: 8.59436
LLC LOAD TRANSLATION ACCESS:        881  HIT:         15  MISS:        866  HIT %:    1.70261  MISS %:    98.2974   MPKI: 0.01732
LLC PREFETCH  REQUESTED:          0  ISSUED:          0  USEFUL:         44  USELESS:     432717
LLC USEFUL LOAD PREFETCHES:         44 PREFETCH ISSUED TO LOWER LEVEL:     431747  ACCURACY: 0.0101912
LLC TIMELY PREFETCHES:         44 LATE PREFETCHES: 0 DROPPED PREFETCHES: 0
LLC PREFETCHES SAME FILL-ORIGIN LEVEL: 0 DIFFERENT FILL-ORIGIN LEVEL: 0
LLC AVERAGE MISS LATENCY: 82.2158 cycles
LLC RQ	ACCESS:       8869	FORWARD:          0	MERGED:          0	TO_CACHE:       8869
LLC WQ	ACCESS:     438367	FORWARD:          0	MERGED:          0	TO_CACHE:     438367
LLC PQ	ACCESS:     440854	FORWARD:          0	MERGED:          0	TO_CACHE:     440854

LLC_Dead_block_count 7907 454
LLC_inaccurate_prefetch_count 431693 54
Interactions: positive negative neutral
LLC_interactions 23 384260 47833
LLC_positive 0 21 2
LLC_negative 383916 2 342
LLC_neutral 16 0 87 346 47384 0
LLC Dense regions hint to LLC: 0

RAW hits: 795
Loads Generated: 17542252
Loads sent to L1D: 17541460
Stores Generated: 3510282
Stores sent to L1D: 3510282
Major fault: 0 Minor fault: 8326
Allocated PAGES: 8326

stream: 
stream:times selected: 1872267
stream:pref_filled: 766564
stream:pref_useful: 763247
stream:pref_late: 4096
stream:misses: 74
stream:misses_by_poll: 0

CS: 
CS:times selected: 1722703
CS:pref_filled: 4617
CS:pref_useful: 4414
CS:pref_late: 0
CS:misses: 33916
CS:misses_by_poll: 19

CPLX: 
CPLX:times selected: 149474
CPLX:pref_filled: 5306
CPLX:pref_useful: 5223
CPLX:pref_late: 0
CPLX:misses: 2538
CPLX:misses_by_poll: 2

NL_L1: 
NL:times selected: 17
NL:pref_filled: 1
NL:pref_useful: 1
NL:pref_late: 0
NL:misses: 4
NL:misses_by_poll: 0

total selections: 3744461
total_filled: 646855
total_useful: 643847
total_late: 4100
total_polluted: 21
total_misses_after_warmup: 36778
conflicts: 487
Degree Incremented Times: 135462
Degree Decremented Times: 0

L1 IP Table Write Accesses: 9067031
L1 IP Table Read Accesses: 9066544
L1 RST Write Accesses: 1493903
L1 RST Read Accesses: 2987806
L1 CSPT Write Accesses: 1493903
L1 CSPT Read Accesses: 1771353
L1 RR Filter Tag Write Accesses: 659949
L1 RR Filter Tag Read Accesses: 336363065
L1 IP Table Tag Write Accesses: 9068890
L1 IP Table Tag Read Accesses: 9068890
L1 RST Tag Write Accesses: 0
L1 RST Tag Read Accesses: 13455682
L1 RR Filter Write Accesses: 0
L1 RR Filter Read Accesses: 12769340
test: 47332
L2 IP Table Read Accesses: 1182863
L2 IP Table Write Accesses: 1166230
L2 IP Table Tag Read Accesses: 591723
L2 IP Table Tag Write Accesses: 591723

DRAM Statistics
 CHANNEL 0
 RQ ROW_BUFFER_HIT:      68997  ROW_BUFFER_MISS:     371111
 DBUS_CONGESTED:        394
 WQ ROW_BUFFER_HIT:     298264  ROW_BUFFER_MISS:     140112  FULL:          0

 AVG_CONGESTED_CYCLE: 6
 All warmup complete: 2
Channel 0 Bank busy for read cycles: 0
Channel 0 Bank busy for write cycles: 0
Channel 0
Rank 0
0banks busy for read cycles: 6289492
0banks busy for write cycles: 8389
1banks busy for read cycles: 20697173
1banks busy for write cycles: 709425
2banks busy for read cycles: 10710291
2banks busy for write cycles: 318708
3banks busy for read cycles: 1045044
3banks busy for write cycles: 254072
4banks busy for read cycles: 432936
4banks busy for write cycles: 287062
5banks busy for read cycles: 150633
5banks busy for write cycles: 292155
6banks busy for read cycles: 156762
6banks busy for write cycles: 400448
7banks busy for read cycles: 1120346
7banks busy for write cycles: 1141363
8banks busy for read cycles: 348700
8banks busy for write cycles: 5534868

CPU 0 Branch Prediction Accuracy: 99.9751% MPKI: 0.00438 Average ROB Occupancy at Mispredict: 48.7352
Branch types
NOT_BRANCH: 49121625 98.2432%
BRANCH_DIRECT_JUMP: 220 0.00044%
BRANCH_INDIRECT: 0 0%
BRANCH_CONDITIONAL: 877399 1.7548%
BRANCH_DIRECT_CALL: 220 0.00044%
BRANCH_INDIRECT_CALL: 0 0%
BRANCH_RETURN: 220 0.00044%
BRANCH_OTHER: 0 0%

@sumon_overall_L1D    643847      4085      4085      3008    646855   1319898   1319898
@Sumon_Early_by_class_L1D    641384      1159      1271         0
@Sumon_Late_by_class_L1D      4041         0         0         0

@Sumon_Early_by_cycle_L1D     10050     21296     31459    376456      4208    200365        11         2         0         0         0         0
@Sumon_Late_by_cycle_L1D        18         3        85        25      3914         0
@Sumon_Early_stream_L1D     10015     20532     31130    376030      3706    199971         0         0         0         0         0         0
@Sumon_Early_CS_L1D        14       600       288       153        47        57         0         0         0         0         0         0
@Sumon_Early_CPLX_L1D         0       154        39       273       455       337        11         2         0         0         0         0
@Sumon_Late_stream_L1D        18         3        84        25      3911         0
@Sumon_Late_CS_L1D         0         0         0         0         0         0
@Sumon_Late_CPLX_L1D         0         0         0         0         0         0
@sumon_overall_L2C      2437        13         0    438737    440841   3307079   3307116
@Sumon_Early_by_class_L2C      2415        15         1         0
@Sumon_Late_by_class_L2C        13         0         0         0

@Sumon_Early_by_cycle_L2C        14        46       708       173        47       258         7         0         0         0         0      1184
@Sumon_Late_by_cycle_L2C         0         0         1         0        12         0
@Sumon_Early_stream_L2C        13        44       708       173        47       258         7         0         0         0         0      1165
@Sumon_Early_CS_L2C         0         0         0         0         0         0         0         0         0         0         0        15
@Sumon_Early_CPLX_L2C         0         0         0         0         0         0         0         0         0         0         0         1
@Sumon_Late_stream_L2C         0         0         1         0        12         0
@Sumon_Late_CS_L2C         0         0         0         0         0         0
@Sumon_Late_CPLX_L2C         0         0         0         0         0         0
DRAM PAGES: 1048576
Allocated PAGES: 8326
