
*** ChampSim Multicore Out-of-Order Simulator ***

Warmup Instructions: 10000000
Simulation Instructions: 50000000
Number of CPUs: 1
LLC sets: 2048
LLC ways: 16
Off-chip DRAM Size: 4096 MB Channels: 1 Width: 64-bit Data Rate: 6400 MT/s
CPU 0 runs traces/SPEC2017/654.roms_s-294B.champsimtrace.xz
.xz
CPU 0 Bimodal branch predictor
BTB has LRU replacement policy
ITLB has LRU replacement policy
DTLB has LRU replacement policy
STLB has LRU replacement policy
L1I has LRU replacement policy
IP Table Entries: 256
L1D has LRU replacement policy
IP_Table L2 entries: 256
L2C has LRU replacement policy
Initialize SRRIP state
Heartbeat CPU 0 instructions: 10000001 cycles: 3208721 heartbeat IPC: 3.11651 cumulative IPC: 3.11651 (Simulation time: 0 hr 12 min 41 sec) 

Warmup complete CPU 0 instructions: 10000001 cycles: 3208721 (Simulation time: 0 hr 12 min 41 sec) 

Heartbeat CPU 0 instructions: 20000000 cycles: 12789536 heartbeat IPC: 1.04375 cumulative IPC: 1.04375 (Simulation time: 0 hr 22 min 37 sec) 
Heartbeat CPU 0 instructions: 30000003 cycles: 22380255 heartbeat IPC: 1.04268 cumulative IPC: 1.04321 (Simulation time: 0 hr 32 min 21 sec) 
Heartbeat CPU 0 instructions: 40000001 cycles: 31967072 heartbeat IPC: 1.0431 cumulative IPC: 1.04318 (Simulation time: 0 hr 42 min 6 sec) 
Heartbeat CPU 0 instructions: 50000002 cycles: 41549928 heartbeat IPC: 1.04353 cumulative IPC: 1.04326 (Simulation time: 0 hr 51 min 34 sec) 
Heartbeat CPU 0 instructions: 60000002 cycles: 51143582 heartbeat IPC: 1.04236 cumulative IPC: 1.04308 (Simulation time: 0 hr 58 min 29 sec) 
Finished CPU 0 instructions: 50000001 cycles: 47934861 cumulative IPC: 1.04308 (Simulation time: 0 hr 58 min 29 sec) 

ChampSim completed all CPUs

Region of Interest Statistics

CPU 0 cumulative IPC: 1.04308 instructions: 50000001 cycles: 47934861
ITLB TOTAL     ACCESS:    6687372  HIT:    6687372  MISS:          0  HIT %:        100  MISS %:          0   MPKI: 0
ITLB LOAD TRANSLATION ACCESS:    6687372  HIT:    6687372  MISS:          0  HIT %:        100  MISS %:          0   MPKI: 0
ITLB PREFETCH  REQUESTED:          0  ISSUED:          0  USEFUL:          0  USELESS:          0
ITLB USEFUL LOAD PREFETCHES:          0 PREFETCH ISSUED TO LOWER LEVEL:          0  ACCURACY: -nan
ITLB TIMELY PREFETCHES:          0 LATE PREFETCHES: 0 DROPPED PREFETCHES: 0
ITLB PREFETCHES SAME FILL-ORIGIN LEVEL: 0 DIFFERENT FILL-ORIGIN LEVEL: 0
ITLB AVERAGE MISS LATENCY: -nan cycles
ITLB RQ	ACCESS:    8355835	FORWARD:          0	MERGED:    1668464	TO_CACHE:    6687371

ITLB_Dead_block_count 0 0
ITLB_inaccurate_prefetch_count 0 0
Interactions: positive negative neutral
ITLB_interactions 0 0 0
ITLB_positive 0 0 0
ITLB_negative 0 0 0
ITLB_neutral 0 0 0 0 0 0
DTLB TOTAL     ACCESS:   13480984  HIT:   13461229  MISS:      19755  HIT %:    99.8535  MISS %:    0.14654   MPKI: 0.3951
DTLB LOAD TRANSLATION ACCESS:   13480984  HIT:   13461229  MISS:      19755  HIT %:    99.8535  MISS %:    0.14654   MPKI: 0.3951
DTLB PREFETCH  REQUESTED:          0  ISSUED:          0  USEFUL:          0  USELESS:          0
DTLB USEFUL LOAD PREFETCHES:          0 PREFETCH ISSUED TO LOWER LEVEL:          0  ACCURACY: -nan
DTLB TIMELY PREFETCHES:          0 LATE PREFETCHES: 0 DROPPED PREFETCHES: 0
DTLB PREFETCHES SAME FILL-ORIGIN LEVEL: 0 DIFFERENT FILL-ORIGIN LEVEL: 0
DTLB AVERAGE MISS LATENCY: 398.848 cycles
DTLB RQ	ACCESS:   14544886	FORWARD:          0	MERGED:    1061652	TO_CACHE:   13483234

DTLB_Dead_block_count 19751 4
DTLB_inaccurate_prefetch_count 0 0
Interactions: positive negative neutral
DTLB_interactions 0 0 0
DTLB_positive 0 0 0
DTLB_negative 0 0 0
DTLB_neutral 0 0 0 0 0 0
STLB TOTAL     ACCESS:     864258  HIT:     847827  MISS:      16431  HIT %:    98.0988  MISS %:    1.90117   MPKI: 0.32862
STLB LOAD TRANSLATION ACCESS:      19755  HIT:       3324  MISS:      16431  HIT %:    16.8261  MISS %:    83.1739   MPKI: 0.32862
STLB TRANSLATION FROM L1D PREFETCHER ACCESS:     844503  HIT:     844503  MISS:          0  HIT %:        100  MISS %:          0   MPKI: 0
STLB PREFETCH  REQUESTED:          0  ISSUED:          0  USEFUL:          0  USELESS:          0
STLB USEFUL LOAD PREFETCHES:          0 PREFETCH ISSUED TO LOWER LEVEL:          0  ACCURACY: -nan
STLB TIMELY PREFETCHES:          0 LATE PREFETCHES: 0 DROPPED PREFETCHES: 0
STLB PREFETCHES SAME FILL-ORIGIN LEVEL: 0 DIFFERENT FILL-ORIGIN LEVEL: 0
STLB AVERAGE MISS LATENCY: 467.608 cycles
STLB RQ	ACCESS:    4567660	FORWARD:          0	MERGED:    3703402	TO_CACHE:     864258

STLB_Dead_block_count 16427 4
STLB_inaccurate_prefetch_count 0 0
Interactions: positive negative neutral
STLB_interactions 0 0 0
STLB_positive 0 0 0
STLB_negative 0 0 0
STLB_neutral 0 0 0 0 0 0
STLB Hit, L1D data hit: 0
STLB Hit, L2C data hit: 0
STLB Hit, LLC data hit: 0
STLB Hit, LLC data miss: 0
STLB STLB hints to L2: 0
L1D TOTAL     ACCESS:   19050279  HIT:   18328816  MISS:     721463  HIT %:    96.2128  MISS %:    3.78715   MPKI: 14.4293
L1D LOAD      ACCESS:   12828053  HIT:   12766585  MISS:      61468  HIT %:    99.5208  MISS %:   0.479169   MPKI: 1.22936
L1D RFO       ACCESS:    1677952  HIT:    1673222  MISS:       4730  HIT %:    99.7181  MISS %:   0.281891   MPKI: 0.0946
L1D PREFETCH  ACCESS:    4544274  HIT:    3889009  MISS:     655265  HIT %:    85.5804  MISS %:    14.4196   MPKI: 13.1053
L1D PREFETCH  REQUESTED:    9845552  ISSUED:    9095812  USEFUL:     599578  USELESS:      55670
L1D USEFUL LOAD PREFETCHES:     599578 PREFETCH ISSUED TO LOWER LEVEL:     666231  ACCURACY: 89.9955
L1D TIMELY PREFETCHES:     599578 LATE PREFETCHES: 414 DROPPED PREFETCHES: 0
L1D PREFETCHES SAME FILL-ORIGIN LEVEL: 666231 DIFFERENT FILL-ORIGIN LEVEL: 0
L1D AVERAGE MISS LATENCY: 55.4956 cycles
L1D RQ	ACCESS:   19112601	FORWARD:          0	MERGED:    6267587	TO_CACHE:   12845011
L1D WQ	ACCESS:    1699875	FORWARD:          3	MERGED:          0	TO_CACHE:    1699875
L1D PQ	ACCESS:    4547907	FORWARD:          0	MERGED:          2	TO_CACHE:    4547905

L1D_Dead_block_count 52 61416
L1D_inaccurate_prefetch_count 4447 650819
Interactions: positive negative neutral
L1D_interactions 1001 4434 652999
L1D_positive 652 115 234
L1D_negative 4149 2 283
L1D_neutral 597958 3052 5 0 10 51974
L1D UNIQUE REGIONS ACCESSED: 0
L1D REGIONS CONFLICTS: 0
L1D Cross Page Prefetch Requests: 0
L1D Same Page Prefetch Requests: 5517946
L1D ROI Sum of L1D PQ occupancy: 67080483
L1D PREFETCHES PUSHED FROM L2C: 0
L1I TOTAL     ACCESS:    8355835  HIT:    8355835  MISS:          0  HIT %:        100  MISS %:          0   MPKI: 0
L1I LOAD      ACCESS:    8355835  HIT:    8355835  MISS:          0  HIT %:        100  MISS %:          0   MPKI: 0
L1I PREFETCH  REQUESTED:          0  ISSUED:          0  USEFUL:          0  USELESS:          0
L1I USEFUL LOAD PREFETCHES:          0 PREFETCH ISSUED TO LOWER LEVEL:          0  ACCURACY: -nan
L1I TIMELY PREFETCHES:          0 LATE PREFETCHES: 0 DROPPED PREFETCHES: 0
L1I PREFETCHES SAME FILL-ORIGIN LEVEL: 0 DIFFERENT FILL-ORIGIN LEVEL: 0
L1I AVERAGE MISS LATENCY: -nan cycles
L1I RQ	ACCESS:   13368124	FORWARD:          0	MERGED:    5012289	TO_CACHE:    8355835

L1I_Dead_block_count 0 0
L1I_inaccurate_prefetch_count 0 0
Interactions: positive negative neutral
L1I_interactions 0 0 0
L1I_positive 0 0 0
L1I_negative 0 0 0
L1I_neutral 0 0 0 0 0 0
BTB TOTAL     ACCESS:    2106371  HIT:    2106360  MISS:         11  HIT %:    99.9995  MISS %: 0.000522225   MPKI: 0.00022
BTB BRANCH_DIRECT_JUMP	ACCESS:         40  HIT:         39  MISS:          1
BTB BRANCH_INDIRECT	ACCESS:          0  HIT:          0  MISS:          0
BTB BRANCH_CONDITIONAL	ACCESS:    2106251  HIT:    2106243  MISS:          8
BTB BRANCH_DIRECT_CALL	ACCESS:         40  HIT:         39  MISS:          1
BTB BRANCH_INDIRECT_CALL	ACCESS:          0  HIT:          0  MISS:          0
BTB BRANCH_RETURN	ACCESS:         40  HIT:         39  MISS:          1
BTB BRANCH_OTHER ACCESS:          0  HIT:          0  MISS:          0

L2C TOTAL     ACCESS:    3357684  HIT:    2598797  MISS:     758887  HIT %:    77.3985  MISS %:    22.6015   MPKI: 15.1777
L2C LOAD      ACCESS:      61464  HIT:      36611  MISS:      24853  HIT %:    59.5649  MISS %:    40.4351   MPKI: 0.49706
L2C DATA LOAD MPKI: 0.49706
L2C INSTRUCTION LOAD MPKI: 0
L2C RFO       ACCESS:       4730  HIT:        477  MISS:       4253  HIT %:    10.0846  MISS %:    89.9154   MPKI: 0.08506
L2C PREFETCH  ACCESS:    3246281  HIT:    2531974  MISS:     714307  HIT %:    77.9961  MISS %:    22.0039   MPKI: 14.2861
L2C DATA PREFETCH MPKI: 14.2861
L2C INSTRUCTION PREFETCH MPKI: 0
L2C WRITEBACK ACCESS:      20564  HIT:      18639  MISS:       1925  HIT %:     90.639  MISS %:    9.36102   MPKI: 0.0385
L2C LOAD TRANSLATION ACCESS:      24645  HIT:      11096  MISS:      13549  HIT %:    45.0233  MISS %:    54.9767   MPKI: 0.27098
L2C PREFETCH  REQUESTED:    3248819  ISSUED:    3057740  USEFUL:      33390  USELESS:     681125
L2C USEFUL LOAD PREFETCHES:      33390 PREFETCH ISSUED TO LOWER LEVEL:     714386  ACCURACY: 4.67394
L2C TIMELY PREFETCHES:      33390 LATE PREFETCHES: 72 DROPPED PREFETCHES: 0
L2C PREFETCHES SAME FILL-ORIGIN LEVEL: 584100 DIFFERENT FILL-ORIGIN LEVEL: 0
L2C AVERAGE MISS LATENCY: 163.823 cycles
L2C RQ	ACCESS:      90843	FORWARD:          0	MERGED:          0	TO_CACHE:      90839
L2C WQ	ACCESS:      20564	FORWARD:         33	MERGED:          0	TO_CACHE:      20564
L2C PQ	ACCESS:    3713006	FORWARD:          0	MERGED:     449292	TO_CACHE:    3263685

L2C_Dead_block_count 20266 22317
L2C_inaccurate_prefetch_count 585359 129027
Interactions: positive negative neutral
L2C_interactions 107429 107491 528934
L2C_positive 7796 5756 93877
L2C_negative 16955 3735 86801
L2C_neutral 3785 1298 35876 18758 445648 23569
L2C Instructions Evicting Data 0
L2C Translations Evicting Data 13308
L2C Data Evicting Data 730153
L2C Instructions Evicting Instructions 0
L2C Translations Evicting Instructions 0
L2C Data Evicting Instructions 0
L2C Instructions Evicting Translations 0
L2C Translations Evicting Translations 241
L2C Data Evicting Translations 13260
L2C Dense regions hint from L2: 0
PSCL5 TOTAL     ACCESS:      16431  HIT:      16431  MISS:          0  HIT %:        100  MISS %:          0   MPKI: 0
PSCL5 LOAD TRANSLATION ACCESS:      16431  HIT:      16431  MISS:          0  HIT %:        100  MISS %:          0   MPKI: 0
PSCL5 PREFETCH  REQUESTED:          0  ISSUED:          0  USEFUL:          0  USELESS:          0
PSCL5 USEFUL LOAD PREFETCHES:          0 PREFETCH ISSUED TO LOWER LEVEL:          0  ACCURACY: -nan
PSCL5 TIMELY PREFETCHES:          0 LATE PREFETCHES: 0 DROPPED PREFETCHES: 0
PSCL5 PREFETCHES SAME FILL-ORIGIN LEVEL: 0 DIFFERENT FILL-ORIGIN LEVEL: 0

PSCL5_Dead_block_count 0 0
PSCL5_inaccurate_prefetch_count 0 0
Interactions: positive negative neutral
PSCL5_interactions 0 0 0
PSCL5_positive 0 0 0
PSCL5_negative 0 0 0
PSCL5_neutral 0 0 0 0 0 0
PSCL4 TOTAL     ACCESS:      16431  HIT:      16431  MISS:          0  HIT %:        100  MISS %:          0   MPKI: 0
PSCL4 LOAD TRANSLATION ACCESS:      16431  HIT:      16431  MISS:          0  HIT %:        100  MISS %:          0   MPKI: 0
PSCL4 PREFETCH  REQUESTED:          0  ISSUED:          0  USEFUL:          0  USELESS:          0
PSCL4 USEFUL LOAD PREFETCHES:          0 PREFETCH ISSUED TO LOWER LEVEL:          0  ACCURACY: -nan
PSCL4 TIMELY PREFETCHES:          0 LATE PREFETCHES: 0 DROPPED PREFETCHES: 0
PSCL4 PREFETCHES SAME FILL-ORIGIN LEVEL: 0 DIFFERENT FILL-ORIGIN LEVEL: 0

PSCL4_Dead_block_count 0 0
PSCL4_inaccurate_prefetch_count 0 0
Interactions: positive negative neutral
PSCL4_interactions 0 0 0
PSCL4_positive 0 0 0
PSCL4_negative 0 0 0
PSCL4_neutral 0 0 0 0 0 0
PSCL3 TOTAL     ACCESS:      16430  HIT:      16425  MISS:          5  HIT %:    99.9696  MISS %:  0.0304321   MPKI: 0.0001
PSCL3 LOAD TRANSLATION ACCESS:      16430  HIT:      16425  MISS:          5  HIT %:    99.9696  MISS %:  0.0304321   MPKI: 0.0001
PSCL3 PREFETCH  REQUESTED:          0  ISSUED:          0  USEFUL:          0  USELESS:          0
PSCL3 USEFUL LOAD PREFETCHES:          0 PREFETCH ISSUED TO LOWER LEVEL:          0  ACCURACY: -nan
PSCL3 TIMELY PREFETCHES:          0 LATE PREFETCHES: 0 DROPPED PREFETCHES: 0
PSCL3 PREFETCHES SAME FILL-ORIGIN LEVEL: 0 DIFFERENT FILL-ORIGIN LEVEL: 0

PSCL3_Dead_block_count 0 0
PSCL3_inaccurate_prefetch_count 0 0
Interactions: positive negative neutral
PSCL3_interactions 0 0 0
PSCL3_positive 0 0 0
PSCL3_negative 0 0 0
PSCL3_neutral 0 0 0 0 0 0
PSCL2 TOTAL     ACCESS:      16431  HIT:       8154  MISS:       8277  HIT %:    49.6257  MISS %:    50.3743   MPKI: 0.16554
PSCL2 LOAD TRANSLATION ACCESS:      16431  HIT:       8154  MISS:       8277  HIT %:    49.6257  MISS %:    50.3743   MPKI: 0.16554
PSCL2 PREFETCH  REQUESTED:          0  ISSUED:          0  USEFUL:          0  USELESS:          0
PSCL2 USEFUL LOAD PREFETCHES:          0 PREFETCH ISSUED TO LOWER LEVEL:          0  ACCURACY: -nan
PSCL2 TIMELY PREFETCHES:          0 LATE PREFETCHES: 0 DROPPED PREFETCHES: 0
PSCL2 PREFETCHES SAME FILL-ORIGIN LEVEL: 0 DIFFERENT FILL-ORIGIN LEVEL: 0

PSCL2_Dead_block_count 0 0
PSCL2_inaccurate_prefetch_count 0 0
Interactions: positive negative neutral
PSCL2_interactions 0 0 0
PSCL2_positive 0 0 0
PSCL2_negative 0 0 0
PSCL2_neutral 0 0 0 0 0 0
LLC TOTAL     ACCESS:     762541  HIT:      18449  MISS:     744092  HIT %:    2.41941  MISS %:    97.5806   MPKI: 14.8818
LLC LOAD      ACCESS:      24781  HIT:       3526  MISS:      21255  HIT %:    14.2286  MISS %:    85.7714   MPKI: 0.4251
LLC RFO       ACCESS:       4253  HIT:         40  MISS:       4213  HIT %:   0.940513  MISS %:    99.0595   MPKI: 0.08426
LLC PREFETCH  ACCESS:     714384  HIT:       1124  MISS:     713260  HIT %:   0.157338  MISS %:    99.8427   MPKI: 14.2652
LLC WRITEBACK ACCESS:       5574  HIT:       4337  MISS:       1237  HIT %:    77.8077  MISS %:    22.1923   MPKI: 0.02474
LLC LOAD TRANSLATION ACCESS:      13549  HIT:       9422  MISS:       4127  HIT %:    69.5402  MISS %:    30.4598   MPKI: 0.08254
LLC PREFETCH  REQUESTED:          0  ISSUED:          0  USEFUL:          0  USELESS:     729788
LLC USEFUL LOAD PREFETCHES:          0 PREFETCH ISSUED TO LOWER LEVEL:     713262  ACCURACY: 0
LLC TIMELY PREFETCHES:          0 LATE PREFETCHES: 0 DROPPED PREFETCHES: 0
LLC PREFETCHES SAME FILL-ORIGIN LEVEL: 0 DIFFERENT FILL-ORIGIN LEVEL: 0
LLC AVERAGE MISS LATENCY: 133.596 cycles
LLC RQ	ACCESS:      42583	FORWARD:          0	MERGED:          0	TO_CACHE:      42583
LLC WQ	ACCESS:       5574	FORWARD:          0	MERGED:          0	TO_CACHE:       5574
LLC PQ	ACCESS:     714386	FORWARD:          0	MERGED:          0	TO_CACHE:     714386

LLC_Dead_block_count 16639 12956
LLC_inaccurate_prefetch_count 713257 5
Interactions: positive negative neutral
LLC_interactions 3121 7647 723567
LLC_positive 0 3116 5
LLC_negative 3650 104 3893
LLC_neutral 0 28 2050 17826 703663 0
LLC Dense regions hint to LLC: 0

RAW hits: 75
Loads Generated: 19112677
Loads sent to L1D: 19112601
Stores Generated: 1699875
Stores sent to L1D: 1699875
Major fault: 0 Minor fault: 20110
Allocated PAGES: 20110

stream: 
stream:times selected: 1263879
stream:pref_filled: 794003
stream:pref_useful: 726046
stream:pref_late: 394
stream:misses: 10
stream:misses_by_poll: 0

CS: 
CS:times selected: 1262291
CS:pref_filled: 1195
CS:pref_useful: 1175
CS:pref_late: 5
CS:misses: 81213
CS:misses_by_poll: 2

CPLX: 
CPLX:times selected: 1554
CPLX:pref_filled: 65
CPLX:pref_useful: 4
CPLX:pref_late: 0
CPLX:misses: 528
CPLX:misses_by_poll: 0

NL_L1: 
NL:times selected: 2
NL:pref_filled: 2
NL:pref_useful: 2
NL:pref_late: 0
NL:misses: 0
NL:misses_by_poll: 0

total selections: 2527726
total_filled: 655265
total_useful: 599578
total_late: 399
total_polluted: 2
total_misses_after_warmup: 78423
conflicts: 17
Degree Incremented Times: 62524
Degree Decremented Times: 0

L1 IP Table Write Accesses: 12844790
L1 IP Table Read Accesses: 12844773
L1 RST Write Accesses: 1054151
L1 RST Read Accesses: 2108302
L1 CSPT Write Accesses: 1054151
L1 CSPT Read Accesses: 1058225
L1 RR Filter Tag Write Accesses: 5297647
L1 RR Filter Tag Read Accesses: 261804227
L1 IP Table Tag Write Accesses: 12845008
L1 IP Table Tag Read Accesses: 12845008
L1 RST Tag Write Accesses: 0
L1 RST Tag Read Accesses: 9497137
L1 RR Filter Write Accesses: 0
L1 RR Filter Read Accesses: 9032266
test: 35076
L2 IP Table Read Accesses: 1151806
L2 IP Table Write Accesses: 1090345
L2 IP Table Tag Read Accesses: 575904
L2 IP Table Tag Write Accesses: 575904

DRAM Statistics
 CHANNEL 0
 RQ ROW_BUFFER_HIT:     442630  ROW_BUFFER_MISS:     300226
 DBUS_CONGESTED:         17
 WQ ROW_BUFFER_HIT:        512  ROW_BUFFER_MISS:       1399  FULL:          0

 AVG_CONGESTED_CYCLE: 5
 All warmup complete: 2
Channel 0 Bank busy for read cycles: 0
Channel 0 Bank busy for write cycles: 0
Channel 0
Rank 0
0banks busy for read cycles: 20653683
0banks busy for write cycles: 1312
1banks busy for read cycles: 11748405
1banks busy for write cycles: 242394
2banks busy for read cycles: 6688275
2banks busy for write cycles: 39828
3banks busy for read cycles: 2994649
3banks busy for write cycles: 13431
4banks busy for read cycles: 1254918
4banks busy for write cycles: 6808
5banks busy for read cycles: 868466
5banks busy for write cycles: 3328
6banks busy for read cycles: 1020818
6banks busy for write cycles: 1831
7banks busy for read cycles: 1581600
7banks busy for write cycles: 1480
8banks busy for read cycles: 812969
8banks busy for write cycles: 667

CPU 0 Branch Prediction Accuracy: 99.9267% MPKI: 0.03682 Average ROB Occupancy at Mispredict: 65.8289
Branch types
NOT_BRANCH: 47488929 94.9779%
BRANCH_DIRECT_JUMP: 40 8e-05%
BRANCH_INDIRECT: 0 0%
BRANCH_CONDITIONAL: 2510869 5.02174%
BRANCH_DIRECT_CALL: 40 8e-05%
BRANCH_INDIRECT_CALL: 0 0%
BRANCH_RETURN: 40 8e-05%
BRANCH_OTHER: 0 0%

@sumon_overall_L1D    599578       414       414     55670    655265   9095812   9845552
@Sumon_Early_by_class_L1D    598792       782         4         0
@Sumon_Late_by_class_L1D       280         1         0         0

@Sumon_Early_by_cycle_L1D      1251      2546     21825     13471     19272    201565    339168        16         4        50       143       267
@Sumon_Late_by_cycle_L1D        56        98        49        13        65         0
@Sumon_Early_stream_L1D      1248      2543     21784     13443     19223    200906    339165        16         4        50       143       267
@Sumon_Early_CS_L1D         3         3        41        27        47       658         3         0         0         0         0         0
@Sumon_Early_CPLX_L1D         0         0         0         1         2         1         0         0         0         0         0         0
@Sumon_Late_stream_L1D        56        98        48        13        65         0
@Sumon_Late_CS_L1D         0         0         1         0         0         0
@Sumon_Late_CPLX_L1D         0         0         0         0         0         0
@sumon_overall_L2C     33390        72         0    681125    714307   3057740   3248819
@Sumon_Early_by_class_L2C     33338        52         0         0
@Sumon_Late_by_class_L2C        64         1         0         0

@Sumon_Early_by_cycle_L2C        73       742      2834      1243      2115     13576     12011        90         0         0         0       706
@Sumon_Late_by_cycle_L2C         7        13         6         4        42         0
@Sumon_Early_stream_L2C        73       741      2833      1241      2111     13532     12011        90         0         0         0       706
@Sumon_Early_CS_L2C         0         1         1         2         4        44         0         0         0         0         0         0
@Sumon_Early_CPLX_L2C         0         0         0         0         0         0         0         0         0         0         0         0
@Sumon_Late_stream_L2C         0        13         6         4        41         0
@Sumon_Late_CS_L2C         0         0         0         0         1         0
@Sumon_Late_CPLX_L2C         0         0         0         0         0         0
DRAM PAGES: 1048576
Allocated PAGES: 20110
