
*** ChampSim Multicore Out-of-Order Simulator ***

Warmup Instructions: 50000000
Simulation Instructions: 50000000
Number of CPUs: 1
LLC sets: 2048
LLC ways: 16
Off-chip DRAM Size: 4096 MB Channels: 1 Width: 64-bit Data Rate: 6400 MT/s
CPU 0 runs ../../biswa/SPEC2017Traces/602.gcc_s-734B.champsimtrace.xz
.xz
CPU 0 Bimodal branch predictor
BTB has LRU replacement policy
ITLB has LRU replacement policy
DTLB has LRU replacement policy
STLB has LRU replacement policy
L1I has LRU replacement policy
L1D has LRU replacement policy
Bingo PHT WAYS: 16 and PHT_SIZE: 16384
Initialize DRRIP state for L2C
Initialize Hawkeye state
epoch: 1000
next table: 3451
cur table: 16277
epoch: 1000
next table: 2915
cur table: 3451
epoch: 1000
next table: 3114
cur table: 2915
epoch: 1000
next table: 2967
cur table: 3114
epoch: 1000
next table: 2858
cur table: 2967
epoch: 1000
next table: 2942
cur table: 2858
epoch: 1000
next table: 2871
cur table: 2942
epoch: 1000
next table: 2792
cur table: 2871
epoch: 1000
next table: 2748
cur table: 2792
epoch: 1000
next table: 2986
cur table: 2748
epoch: 1000
next table: 2914
cur table: 2986
epoch: 1000
next table: 2851
cur table: 2914
epoch: 1000
next table: 2930
cur table: 2851
epoch: 1000
next table: 2958
cur table: 2930
epoch: 1000
next table: 2770
cur table: 2958
epoch: 1000
next table: 2925
cur table: 2770
epoch: 1000
next table: 2888
cur table: 2925
epoch: 1000
next table: 2903
cur table: 2888
epoch: 1000
next table: 2910
cur table: 2903
epoch: 1000
next table: 2944
cur table: 2910
epoch: 1000
next table: 2950
cur table: 2944
epoch: 1000
next table: 1086
cur table: 4455
epoch: 1000
next table: 2858
cur table: 2950
epoch: 1000
next table: 1130
cur table: 1086
epoch: 1000
next table: 2883
cur table: 2858
epoch: 1000
next table: 1051
cur table: 1130
epoch: 1000
next table: 2913
cur table: 2883
epoch: 1000
next table: 1056
cur table: 1051
epoch: 1000
next table: 2954
cur table: 2913
epoch: 1000
next table: 1054
cur table: 1056
epoch: 1000
next table: 2897
cur table: 2954
epoch: 1000
next table: 1096
cur table: 1054
epoch: 1000
next table: 2776
cur table: 2897
epoch: 1000
next table: 1071
cur table: 1096
epoch: 1000
next table: 2861
cur table: 2776
epoch: 1000
next table: 1076
cur table: 1071
epoch: 1000
next table: 2872
cur table: 2861
epoch: 1000
next table: 2973
cur table: 2872
epoch: 1000
next table: 1053
cur table: 1076
epoch: 1000
next table: 2920
cur table: 2973
epoch: 1000
next table: 1070
cur table: 1053
epoch: 1000
next table: 2816
cur table: 2920
epoch: 1000
next table: 1055
cur table: 1070
epoch: 1000
next table: 2918
cur table: 2816
epoch: 1000
next table: 1052
cur table: 1055
epoch: 1000
next table: 2984
cur table: 2918
epoch: 1000
next table: 1044
cur table: 1052
epoch: 1000
next table: 2992
cur table: 2984
epoch: 1000
next table: 1046
cur table: 1044
epoch: 1000
next table: 2915
cur table: 2992
epoch: 1000
next table: 1060
cur table: 1046
epoch: 1000
next table: 2827
cur table: 2915
epoch: 1000
next table: 1090
cur table: 1060
epoch: 1000
next table: 2887
cur table: 2827
epoch: 1000
next table: 1050
cur table: 1090
epoch: 1000
next table: 2882
cur table: 2887
epoch: 1000
next table: 1052
cur table: 1050
epoch: 1000
next table: 2988
cur table: 2882
epoch: 1000
next table: 1048
cur table: 1052
epoch: 1000
next table: 2975
cur table: 2988
epoch: 1000
next table: 1061
cur table: 1048
epoch: 1000
next table: 2864
cur table: 2975
epoch: 1000
next table: 1040
cur table: 1061
epoch: 1000
next table: 2843
cur table: 2864
epoch: 1000
next table: 1054
cur table: 1040
epoch: 1000
next table: 2949
cur table: 2843
epoch: 1000
next table: 1074
cur table: 1054
epoch: 1000
next table: 2862
cur table: 2949
epoch: 1000
next table: 1042
cur table: 1074
epoch: 1000
next table: 2883
cur table: 2862
epoch: 1000
next table: 1063
cur table: 1042
epoch: 1000
next table: 2995
cur table: 2883
epoch: 1000
next table: 1044
cur table: 1063
epoch: 1000
next table: 2967
cur table: 2995
epoch: 1000
next table: 1056
cur table: 1044
epoch: 1000
next table: 2792
cur table: 2967
epoch: 1000
next table: 1088
cur table: 1056
epoch: 1000
next table: 2820
cur table: 2792
epoch: 1000
next table: 1068
cur table: 1088
epoch: 1000
next table: 2835
cur table: 2820
epoch: 1000
next table: 1083
cur table: 1068
epoch: 1000
next table: 2773
cur table: 2835
epoch: 1000
next table: 1083
cur table: 1083
epoch: 1000
next table: 2612
cur table: 2773
epoch: 1000
next table: 1097
cur table: 1083
epoch: 1000
next table: 3013
cur table: 2612
epoch: 1000
next table: 1058
cur table: 1097
epoch: 1000
next table: 2475
cur table: 3013
epoch: 1000
next table: 1122
cur table: 1058
epoch: 1000
next table: 2930
cur table: 2475
epoch: 1000
next table: 1054
cur table: 1122
epoch: 1000
next table: 2916
cur table: 2930
epoch: 1000
next table: 1045
cur table: 1054
epoch: 1000
next table: 2788
cur table: 2916
epoch: 1000
next table: 1100
cur table: 1045
epoch: 1000
next table: 2803
cur table: 2788
epoch: 1000
next table: 1071
cur table: 1100
epoch: 1000
next table: 2660
cur table: 2803
epoch: 1000
next table: 1098
cur table: 1071
epoch: 1000
next table: 2739
cur table: 2660
epoch: 1000
next table: 1101
cur table: 1098
epoch: 1000
next table: 2781
cur table: 2739
epoch: 1000
next table: 1109
cur table: 1101
epoch: 1000
next table: 2780
cur table: 2781
epoch: 1000
next table: 1051
cur table: 1109
epoch: 1000
next table: 3001
cur table: 2780
epoch: 1000
next table: 1119
cur table: 1051
epoch: 1000
next table: 2518
cur table: 3001
epoch: 1000
next table: 1126
cur table: 1119
epoch: 1000
next table: 2749
cur table: 2518
epoch: 1000
next table: 1060
cur table: 1126
epoch: 1000
next table: 2902
cur table: 2749
epoch: 1000
next table: 1038
cur table: 1060
epoch: 1000
next table: 2658
cur table: 2902
epoch: 1000
next table: 1149
cur table: 1038
epoch: 1000
next table: 2771
cur table: 2658
epoch: 1000
next table: 1042
cur table: 1149
epoch: 1000
next table: 2782
cur table: 2771
epoch: 1000
next table: 1075
cur table: 1042
epoch: 1000
next table: 2903
cur table: 2782
epoch: 1000
next table: 1067
cur table: 1075
epoch: 1000
next table: 2836
cur table: 2903
epoch: 1000
next table: 1079
cur table: 1067
epoch: 1000
next table: 2689
cur table: 2836
epoch: 1000
next table: 1042
cur table: 1079
epoch: 1000
next table: 2942
cur table: 2689
epoch: 1000
next table: 1053
cur table: 1042
epoch: 1000
next table: 2878
cur table: 2942
epoch: 1000
next table: 1086
cur table: 1053
epoch: 1000
next table: 2728
cur table: 2878
epoch: 1000
next table: 1107
cur table: 1086
epoch: 1000
next table: 2620
cur table: 2728
epoch: 1000
next table: 1101
cur table: 1107
epoch: 1000
next table: 2597
cur table: 2620
epoch: 1000
next table: 1051
cur table: 1101
epoch: 1000
next table: 2940
cur table: 2597
Heartbeat CPU 0 instructions: 10000000 cycles: 3227213 heartbeat IPC: 3.09865 cumulative IPC: 3.09865 (Simulation time: 0 hr 5 min 11 sec) 
epoch: 1000
next table: 1056
cur table: 1051
epoch: 1000
next table: 2934
cur table: 2940
epoch: 1000
next table: 1063
cur table: 1056
epoch: 1000
next table: 2803
cur table: 2934
epoch: 1000
next table: 1041
cur table: 1063
epoch: 1000
next table: 2901
cur table: 2803
epoch: 1000
next table: 3002
cur table: 2901
epoch: 1000
next table: 1044
cur table: 1041
epoch: 1000
next table: 2769
cur table: 3002
epoch: 1000
next table: 1067
cur table: 1044
epoch: 1000
next table: 2866
cur table: 2769
epoch: 1000
next table: 1053
cur table: 1067
epoch: 1000
next table: 2857
cur table: 2866
epoch: 1000
next table: 1057
cur table: 1053
epoch: 1000
next table: 2908
cur table: 2857
epoch: 1000
next table: 1083
cur table: 1057
epoch: 1000
next table: 2836
cur table: 2908
epoch: 1000
next table: 1049
cur table: 1083
epoch: 1000
next table: 2925
cur table: 2836
epoch: 1000
next table: 1061
cur table: 1049
epoch: 1000
next table: 2790
cur table: 2925
epoch: 1000
next table: 1054
cur table: 1061
epoch: 1000
next table: 2782
cur table: 2790
epoch: 1000
next table: 1058
cur table: 1054
epoch: 1000
next table: 2885
cur table: 2782
epoch: 1000
next table: 1062
cur table: 1058
epoch: 1000
next table: 2994
cur table: 2885
epoch: 1000
next table: 1061
cur table: 1062
epoch: 1000
next table: 2857
cur table: 2994
epoch: 1000
next table: 1041
cur table: 1061
epoch: 1000
next table: 2787
cur table: 2857
epoch: 1000
next table: 1066
cur table: 1041
epoch: 1000
next table: 2895
cur table: 2787
epoch: 1000
next table: 1086
cur table: 1066
epoch: 1000
next table: 2483
cur table: 2895
epoch: 1000
next table: 1214
cur table: 1086
epoch: 1000
next table: 2319
cur table: 2483
epoch: 1000
next table: 1094
cur table: 1214
epoch: 1000
next table: 2615
cur table: 2319
epoch: 1000
next table: 1088
cur table: 1094
epoch: 1000
next table: 2959
cur table: 2615
epoch: 1000
next table: 1048
cur table: 1088
epoch: 1000
next table: 2926
cur table: 2959
epoch: 1000
next table: 1057
cur table: 1048
epoch: 1000
next table: 2956
cur table: 2926
epoch: 1000
next table: 1069
cur table: 1057
epoch: 1000
next table: 2727
cur table: 2956
epoch: 1000
next table: 1066
cur table: 1069
epoch: 1000
next table: 2828
cur table: 2727
epoch: 1000
next table: 1048
cur table: 1066
epoch: 1000
next table: 2938
cur table: 2828
epoch: 1000
next table: 1043
cur table: 1048
epoch: 1000
next table: 2734
cur table: 2938
epoch: 1000
next table: 1078
cur table: 1043
epoch: 1000
next table: 2865
cur table: 2734
epoch: 1000
next table: 1072
cur table: 1078
epoch: 1000
next table: 2794
cur table: 2865
epoch: 1000
next table: 1105
cur table: 1072
epoch: 1000
next table: 2369
cur table: 2794
epoch: 1000
next table: 1093
cur table: 1105
epoch: 1000
next table: 2567
cur table: 2369
epoch: 1000
next table: 1105
cur table: 1093
epoch: 1000
next table: 2860
cur table: 2567
epoch: 1000
next table: 1185
cur table: 1105
epoch: 1000
next table: 2095
cur table: 2860
epoch: 1000
next table: 1046
cur table: 1185
epoch: 1000
next table: 2764
cur table: 2095
epoch: 1000
next table: 1056
cur table: 1046
epoch: 1000
next table: 2929
cur table: 2764
epoch: 1000
next table: 1068
cur table: 1056
epoch: 1000
next table: 2318
cur table: 2929
epoch: 1000
next table: 1201
cur table: 1068
epoch: 1000
next table: 2315
cur table: 2318
epoch: 1000
next table: 1137
cur table: 1201
epoch: 1000
next table: 2677
cur table: 2315
epoch: 1000
next table: 1053
cur table: 1137
epoch: 1000
next table: 2848
cur table: 2677
epoch: 1000
next table: 2017
cur table: 2848
epoch: 1000
next table: 2002
cur table: 1053
epoch: 1000
next table: 2699
cur table: 2017
epoch: 1000
next table: 1235
cur table: 2002
epoch: 1000
next table: 3045
cur table: 2699
epoch: 1000
next table: 1164
cur table: 1235
epoch: 1000
next table: 3641
cur table: 3045
epoch: 1000
next table: 1175
cur table: 1164
epoch: 1000
next table: 2834
cur table: 3641
epoch: 1000
next table: 1222
cur table: 1175
epoch: 1000
next table: 1405
cur table: 2834
epoch: 1000
next table: 1103
cur table: 1222
epoch: 1000
next table: 1623
cur table: 1405
epoch: 1000
next table: 1140
cur table: 1103
epoch: 1000
next table: 2722
cur table: 1623
epoch: 1000
next table: 1070
cur table: 1140
epoch: 1000
next table: 2602
cur table: 2722
epoch: 1000
next table: 1095
cur table: 1070
epoch: 1000
next table: 2686
cur table: 2602
epoch: 1000
next table: 1061
cur table: 1095
epoch: 1000
next table: 2955
cur table: 2686
epoch: 1000
next table: 1072
cur table: 1061
epoch: 1000
next table: 2823
cur table: 2955
epoch: 1000
next table: 1045
cur table: 1072
epoch: 1000
next table: 2762
cur table: 2823
epoch: 1000
next table: 1102
cur table: 1045
epoch: 1000
next table: 2921
cur table: 2762
epoch: 1000
next table: 1054
cur table: 1102
epoch: 1000
next table: 3015
cur table: 2921
epoch: 1000
next table: 1051
cur table: 1054
epoch: 1000
next table: 2847
cur table: 3015
epoch: 1000
next table: 1047
cur table: 1051
epoch: 1000
next table: 3069
cur table: 2847
epoch: 1000
next table: 1058
cur table: 1047
epoch: 1000
next table: 2850
cur table: 3069
epoch: 1000
next table: 1062
cur table: 1058
epoch: 1000
next table: 2907
cur table: 2850
epoch: 1000
next table: 1056
cur table: 1062
epoch: 1000
next table: 2921
cur table: 2907
epoch: 1000
next table: 1065
cur table: 1056
epoch: 1000
next table: 2788
cur table: 2921
epoch: 1000
next table: 1044
cur table: 1065
epoch: 1000
next table: 2761
cur table: 2788
epoch: 1000
next table: 1094
cur table: 1044
epoch: 1000
next table: 2711
cur table: 2761
epoch: 1000
next table: 1045
cur table: 1094
epoch: 1000
next table: 2986
cur table: 2711
epoch: 1000
next table: 1046
cur table: 1045
epoch: 1000
next table: 2941
cur table: 2986
epoch: 1000
next table: 1045
cur table: 1046
epoch: 1000
next table: 2943
cur table: 2941
epoch: 1000
next table: 1055
cur table: 1045
epoch: 1000
next table: 2817
cur table: 2943
epoch: 1000
next table: 1042
cur table: 1055
epoch: 1000
next table: 3006
cur table: 2817
epoch: 1000
next table: 1059
cur table: 1042
epoch: 1000
next table: 2807
cur table: 3006
epoch: 1000
next table: 1045
cur table: 1059
epoch: 1000
next table: 3012
cur table: 2807
epoch: 1000
next table: 2908
cur table: 3012
epoch: 1000
next table: 1059
cur table: 1045
epoch: 1000
next table: 2904
cur table: 2908
epoch: 1000
next table: 1046
cur table: 1059
epoch: 1000
next table: 2847
cur table: 2904
epoch: 1000
next table: 1070
cur table: 1046
epoch: 1000
next table: 2828
cur table: 2847
epoch: 1000
next table: 1057
cur table: 1070
epoch: 1000
next table: 2785
cur table: 2828
epoch: 1000
next table: 1063
cur table: 1057
epoch: 1000
next table: 2899
cur table: 2785
epoch: 1000
next table: 1058
cur table: 1063
epoch: 1000
next table: 2875
cur table: 2899
epoch: 1000
next table: 1055
cur table: 1058
epoch: 1000
next table: 2779
cur table: 2875
epoch: 1000
next table: 1070
cur table: 1055
epoch: 1000
next table: 2977
cur table: 2779
epoch: 1000
next table: 1078
cur table: 1070
epoch: 1000
next table: 2881
cur table: 2977
epoch: 1000
next table: 1041
cur table: 1078
epoch: 1000
next table: 2834
cur table: 2881
epoch: 1000
next table: 1066
cur table: 1041
epoch: 1000
next table: 3005
cur table: 2834
epoch: 1000
next table: 1053
cur table: 1066
epoch: 1000
next table: 2792
cur table: 3005
epoch: 1000
next table: 1047
cur table: 1053
epoch: 1000
next table: 2788
cur table: 2792
epoch: 1000
next table: 1084
cur table: 1047
epoch: 1000
next table: 2949
cur table: 2788
epoch: 1000
next table: 1055
cur table: 1084
epoch: 1000
next table: 2949
cur table: 2949
epoch: 1000
next table: 1038
cur table: 1055
epoch: 1000
next table: 2829
cur table: 2949
epoch: 1000
next table: 1078
cur table: 1038
epoch: 1000
next table: 3016
cur table: 2829
epoch: 1000
next table: 1050
cur table: 1078
epoch: 1000
next table: 2990
cur table: 3016
epoch: 1000
next table: 1059
cur table: 1050
epoch: 1000
next table: 3015
cur table: 2990
epoch: 1000
next table: 1048
cur table: 1059
epoch: 1000
next table: 2843
cur table: 3015
epoch: 1000
next table: 1068
cur table: 1048
epoch: 1000
next table: 2841
cur table: 2843
epoch: 1000
next table: 1052
cur table: 1068
epoch: 1000
next table: 2927
cur table: 2841
epoch: 1000
next table: 1079
cur table: 1052
epoch: 1000
next table: 2975
cur table: 2927
Heartbeat CPU 0 instructions: 20000002 cycles: 6468125 heartbeat IPC: 3.08555 cumulative IPC: 3.09209 (Simulation time: 0 hr 10 min 23 sec) 
epoch: 1000
next table: 1063
cur table: 1079
epoch: 1000
next table: 2966
cur table: 2975
epoch: 1000
next table: 1074
cur table: 1063
epoch: 1000
next table: 3014
cur table: 2966
epoch: 1000
next table: 1037
cur table: 1074
epoch: 1000
next table: 2863
cur table: 3014
epoch: 1000
next table: 1058
cur table: 1037
epoch: 1000
next table: 3023
cur table: 2863
epoch: 1000
next table: 1078
cur table: 1058
epoch: 1000
next table: 2890
cur table: 3023
epoch: 1000
next table: 1046
cur table: 1078
epoch: 1000
next table: 2850
cur table: 2890
epoch: 1000
next table: 1072
cur table: 1046
epoch: 1000
next table: 2884
cur table: 2850
epoch: 1000
next table: 1049
cur table: 1072
epoch: 1000
next table: 2921
cur table: 2884
epoch: 1000
next table: 1059
cur table: 1049
epoch: 1000
next table: 2832
cur table: 2921
epoch: 1000
next table: 1050
cur table: 1059
epoch: 1000
next table: 2962
cur table: 2832
epoch: 1000
next table: 1054
cur table: 1050
epoch: 1000
next table: 2931
cur table: 2962
epoch: 1000
next table: 1062
cur table: 1054
epoch: 1000
next table: 2848
cur table: 2931
epoch: 1000
next table: 1044
cur table: 1062
epoch: 1000
next table: 2948
cur table: 2848
epoch: 1000
next table: 1054
cur table: 1044
epoch: 1000
next table: 2760
cur table: 2948
epoch: 1000
next table: 1058
cur table: 1054
epoch: 1000
next table: 3015
cur table: 2760
epoch: 1000
next table: 1047
cur table: 1058
epoch: 1000
next table: 2948
cur table: 3015
epoch: 1000
next table: 1056
cur table: 1047
epoch: 1000
next table: 2816
cur table: 2948
epoch: 1000
next table: 1058
cur table: 1056
epoch: 1000
next table: 2908
cur table: 2816
epoch: 1000
next table: 1059
cur table: 1058
epoch: 1000
next table: 2912
cur table: 2908
epoch: 1000
next table: 1066
cur table: 1059
epoch: 1000
next table: 2920
cur table: 2912
epoch: 1000
next table: 1046
cur table: 1066
epoch: 1000
next table: 2962
cur table: 2920
epoch: 1000
next table: 1051
cur table: 1046
epoch: 1000
next table: 2842
cur table: 2962
epoch: 1000
next table: 1082
cur table: 1051
epoch: 1000
next table: 2902
cur table: 2842
epoch: 1000
next table: 1041
cur table: 1082
epoch: 1000
next table: 2833
cur table: 2902
epoch: 1000
next table: 1052
cur table: 1041
epoch: 1000
next table: 2786
cur table: 2833
epoch: 1000
next table: 1059
cur table: 1052
epoch: 1000
next table: 2934
cur table: 2786
epoch: 1000
next table: 1054
cur table: 1059
epoch: 1000
next table: 2968
cur table: 2934
epoch: 1000
next table: 1043
cur table: 1054
epoch: 1000
next table: 2915
cur table: 2968
epoch: 1000
next table: 1054
cur table: 1043
epoch: 1000
next table: 2947
cur table: 2915
epoch: 1000
next table: 1072
cur table: 1054
epoch: 1000
next table: 2871
cur table: 2947
epoch: 1000
next table: 1057
cur table: 1072
epoch: 1000
next table: 2913
cur table: 2871
epoch: 1000
next table: 1068
cur table: 1057
epoch: 1000
next table: 2860
cur table: 2913
epoch: 1000
next table: 1064
cur table: 1068
epoch: 1000
next table: 2862
cur table: 2860
epoch: 1000
next table: 1052
cur table: 1064
epoch: 1000
next table: 2667
cur table: 2862
epoch: 1000
next table: 1061
cur table: 1052
epoch: 1000
next table: 2979
cur table: 2667
epoch: 1000
next table: 1052
cur table: 1061
epoch: 1000
next table: 2846
cur table: 2979
epoch: 1000
next table: 1060
cur table: 1052
epoch: 1000
next table: 2824
cur table: 2846
epoch: 1000
next table: 1073
cur table: 1060
epoch: 1000
next table: 2917
cur table: 2824
epoch: 1000
next table: 1045
cur table: 1073
epoch: 1000
next table: 2793
cur table: 2917
epoch: 1000
next table: 1062
cur table: 1045
epoch: 1000
next table: 2924
cur table: 2793
epoch: 1000
next table: 1049
cur table: 1062
epoch: 1000
next table: 2898
cur table: 2924
epoch: 1000
next table: 1040
cur table: 1049
epoch: 1000
next table: 2956
cur table: 2898
epoch: 1000
next table: 1053
cur table: 1040
epoch: 1000
next table: 2787
cur table: 2956
epoch: 1000
next table: 1047
cur table: 1053
epoch: 1000
next table: 3051
cur table: 2787
epoch: 1000
next table: 1047
cur table: 1047
epoch: 1000
next table: 2852
cur table: 3051
epoch: 1000
next table: 1041
cur table: 1047
epoch: 1000
next table: 3015
cur table: 2852
epoch: 1000
next table: 1040
cur table: 1041
epoch: 1000
next table: 2996
cur table: 3015
epoch: 1000
next table: 1041
cur table: 1040
epoch: 1000
next table: 3015
cur table: 2996
epoch: 1000
next table: 1054
cur table: 1041
epoch: 1000
next table: 2926
cur table: 3015
epoch: 1000
next table: 1036
cur table: 1054
epoch: 1000
next table: 2797
cur table: 2926
epoch: 1000
next table: 1053
cur table: 1036
epoch: 1000
next table: 3052
cur table: 2797
epoch: 1000
next table: 1041
cur table: 1053
epoch: 1000
next table: 2914
cur table: 3052
epoch: 1000
next table: 1035
cur table: 1041
epoch: 1000
next table: 2892
cur table: 2914
epoch: 1000
next table: 1050
cur table: 1035
epoch: 1000
next table: 2939
cur table: 2892
epoch: 1000
next table: 1048
cur table: 1050
epoch: 1000
next table: 2887
cur table: 2939
epoch: 1000
next table: 1039
cur table: 1048
epoch: 1000
next table: 2954
cur table: 2887
epoch: 1000
next table: 1042
cur table: 1039
epoch: 1000
next table: 2880
cur table: 2954
epoch: 1000
next table: 1098
cur table: 1042
epoch: 1000
next table: 2928
cur table: 2880
epoch: 1000
next table: 1047
cur table: 1098
epoch: 1000
next table: 2913
cur table: 2928
epoch: 1000
next table: 1052
cur table: 1047
epoch: 1000
next table: 2909
cur table: 2913
epoch: 1000
next table: 1037
cur table: 1052
epoch: 1000
next table: 3019
cur table: 2909
epoch: 1000
next table: 1050
cur table: 1037
epoch: 1000
next table: 2995
cur table: 3019
epoch: 1000
next table: 1039
cur table: 1050
epoch: 1000
next table: 2890
cur table: 2995
epoch: 1000
next table: 1070
cur table: 1039
epoch: 1000
next table: 2967
cur table: 2890
epoch: 1000
next table: 1078
cur table: 1070
epoch: 1000
next table: 2798
cur table: 2967
epoch: 1000
next table: 1050
cur table: 1078
epoch: 1000
next table: 2891
cur table: 2798
epoch: 1000
next table: 1057
cur table: 1050
epoch: 1000
next table: 3034
cur table: 2891
epoch: 1000
next table: 1067
cur table: 1057
epoch: 1000
next table: 3005
cur table: 3034
epoch: 1000
next table: 1069
cur table: 1067
epoch: 1000
next table: 2953
cur table: 3005
epoch: 1000
next table: 1069
cur table: 1069
epoch: 1000
next table: 3028
cur table: 2953
epoch: 1000
next table: 1074
cur table: 1069
epoch: 1000
next table: 2945
cur table: 3028
epoch: 1000
next table: 1045
cur table: 1074
epoch: 1000
next table: 3018
cur table: 2945
epoch: 1000
next table: 1105
cur table: 1045
epoch: 1000
next table: 2851
cur table: 3018
epoch: 1000
next table: 1036
cur table: 1105
epoch: 1000
next table: 2857
cur table: 2851
epoch: 1000
next table: 1083
cur table: 1036
epoch: 1000
next table: 2960
cur table: 2857
epoch: 1000
next table: 1053
cur table: 1083
epoch: 1000
next table: 2930
cur table: 2960
epoch: 1000
next table: 1049
cur table: 1053
epoch: 1000
next table: 2824
cur table: 2930
epoch: 1000
next table: 1066
cur table: 1049
epoch: 1000
next table: 2878
cur table: 2824
epoch: 1000
next table: 1065
cur table: 1066
epoch: 1000
next table: 2789
cur table: 2878
epoch: 1000
next table: 1051
cur table: 1065
epoch: 1000
next table: 2945
cur table: 2789
epoch: 1000
next table: 1044
cur table: 1051
epoch: 1000
next table: 2958
cur table: 2945
epoch: 1000
next table: 1058
cur table: 1044
epoch: 1000
next table: 2808
cur table: 2958
epoch: 1000
next table: 2887
cur table: 2808
epoch: 1000
next table: 1064
cur table: 1058
epoch: 1000
next table: 2948
cur table: 2887
epoch: 1000
next table: 2898
cur table: 2948
epoch: 1000
next table: 1106
cur table: 1064
Heartbeat CPU 0 instructions: 30000000 cycles: 9686543 heartbeat IPC: 3.10712 cumulative IPC: 3.09708 (Simulation time: 0 hr 15 min 39 sec) 
epoch: 1000
next table: 2967
cur table: 2898
epoch: 1000
next table: 2750
cur table: 2967
epoch: 1000
next table: 1150
cur table: 1106
epoch: 1000
next table: 2865
cur table: 2750
epoch: 1000
next table: 2884
cur table: 2865
epoch: 1000
next table: 2704
cur table: 2884
epoch: 1000
next table: 2861
cur table: 2704
epoch: 1000
next table: 2857
cur table: 2861
epoch: 1000
next table: 2904
cur table: 2857
epoch: 1000
next table: 2631
cur table: 2904
epoch: 1000
next table: 2933
cur table: 2631
epoch: 1000
next table: 2825
cur table: 2933
epoch: 1000
next table: 2795
cur table: 2825
epoch: 1000
next table: 2893
cur table: 2795
epoch: 1000
next table: 1687
cur table: 1150
epoch: 1000
next table: 2663
cur table: 2893
epoch: 1000
next table: 2949
cur table: 2663
epoch: 1000
next table: 2862
cur table: 2949
epoch: 1000
next table: 2920
cur table: 2862
epoch: 1000
next table: 2908
cur table: 2920
epoch: 1000
next table: 2877
cur table: 2908
epoch: 1000
next table: 2848
cur table: 2877
epoch: 1000
next table: 2889
cur table: 2848
epoch: 1000
next table: 2805
cur table: 2889
epoch: 1000
next table: 2940
cur table: 2805
epoch: 1000
next table: 2924
cur table: 2940
epoch: 1000
next table: 2979
cur table: 2924
epoch: 1000
next table: 1605
cur table: 1687
epoch: 1000
next table: 2768
cur table: 2979
epoch: 1000
next table: 1064
cur table: 1605
epoch: 1000
next table: 3007
cur table: 2768
epoch: 1000
next table: 1041
cur table: 1064
epoch: 1000
next table: 2799
cur table: 3007
epoch: 1000
next table: 1067
cur table: 1041
epoch: 1000
next table: 2912
cur table: 2799
epoch: 1000
next table: 1051
cur table: 1067
epoch: 1000
next table: 2952
cur table: 2912
epoch: 1000
next table: 1040
cur table: 1051
epoch: 1000
next table: 2903
cur table: 2952
epoch: 1000
next table: 1060
cur table: 1040
epoch: 1000
next table: 2852
cur table: 2903
epoch: 1000
next table: 1064
cur table: 1060
epoch: 1000
next table: 2831
cur table: 2852
epoch: 1000
next table: 1082
cur table: 1064
epoch: 1000
next table: 2808
cur table: 2831
epoch: 1000
next table: 1063
cur table: 1082
epoch: 1000
next table: 2933
cur table: 2808
epoch: 1000
next table: 1034
cur table: 1063
epoch: 1000
next table: 2982
cur table: 2933
epoch: 1000
next table: 1053
cur table: 1034
epoch: 1000
next table: 2797
cur table: 2982
epoch: 1000
next table: 1072
cur table: 1053
epoch: 1000
next table: 2884
cur table: 2797
epoch: 1000
next table: 1036
cur table: 1072
epoch: 1000
next table: 2929
cur table: 2884
epoch: 1000
next table: 1046
cur table: 1036
epoch: 1000
next table: 2990
cur table: 2929
epoch: 1000
next table: 1051
cur table: 1046
epoch: 1000
next table: 2929
cur table: 2990
epoch: 1000
next table: 1064
cur table: 1051
epoch: 1000
next table: 2916
cur table: 2929
epoch: 1000
next table: 1054
cur table: 1064
epoch: 1000
next table: 2775
cur table: 2916
epoch: 1000
next table: 1069
cur table: 1054
epoch: 1000
next table: 2884
cur table: 2775
epoch: 1000
next table: 1047
cur table: 1069
epoch: 1000
next table: 2890
cur table: 2884
epoch: 1000
next table: 1037
cur table: 1047
epoch: 1000
next table: 3055
cur table: 2890
epoch: 1000
next table: 1048
cur table: 1037
epoch: 1000
next table: 2980
cur table: 3055
epoch: 1000
next table: 1046
cur table: 1048
epoch: 1000
next table: 2867
cur table: 2980
epoch: 1000
next table: 1042
cur table: 1046
epoch: 1000
next table: 2787
cur table: 2867
epoch: 1000
next table: 3012
cur table: 2787
epoch: 1000
next table: 1073
cur table: 1042
epoch: 1000
next table: 2811
cur table: 3012
epoch: 1000
next table: 1061
cur table: 1073
epoch: 1000
next table: 2952
cur table: 2811
epoch: 1000
next table: 1056
cur table: 1061
epoch: 1000
next table: 2998
cur table: 2952
epoch: 1000
next table: 1040
cur table: 1056
epoch: 1000
next table: 2971
cur table: 2998
epoch: 1000
next table: 1071
cur table: 1040
epoch: 1000
next table: 2739
cur table: 2971
epoch: 1000
next table: 1097
cur table: 1071
epoch: 1000
next table: 2882
cur table: 2739
epoch: 1000
next table: 2687
cur table: 2882
epoch: 1000
next table: 1097
cur table: 1097
epoch: 1000
next table: 2949
cur table: 2687
epoch: 1000
next table: 1041
cur table: 1097
epoch: 1000
next table: 2357
cur table: 2949
epoch: 1000
next table: 1179
cur table: 1041
epoch: 1000
next table: 2764
cur table: 2357
epoch: 1000
next table: 1041
cur table: 1179
epoch: 1000
next table: 2695
cur table: 2764
epoch: 1000
next table: 1165
cur table: 1041
epoch: 1000
next table: 2451
cur table: 2695
epoch: 1000
next table: 1225
cur table: 1165
epoch: 1000
next table: 2285
cur table: 2451
epoch: 1000
next table: 1177
cur table: 1225
epoch: 1000
next table: 2659
cur table: 2285
epoch: 1000
next table: 1067
cur table: 1177
epoch: 1000
next table: 2455
cur table: 2659
epoch: 1000
next table: 1102
cur table: 1067
epoch: 1000
next table: 2844
cur table: 2455
epoch: 1000
next table: 1075
cur table: 1102
epoch: 1000
next table: 2711
cur table: 2844
epoch: 1000
next table: 1069
cur table: 1075
epoch: 1000
next table: 2911
cur table: 2711
epoch: 1000
next table: 1046
cur table: 1069
epoch: 1000
next table: 2539
cur table: 2911
epoch: 1000
next table: 1179
cur table: 1046
epoch: 1000
next table: 2348
cur table: 2539
epoch: 1000
next table: 1183
cur table: 1179
epoch: 1000
next table: 2409
cur table: 2348
epoch: 1000
next table: 1154
cur table: 1183
epoch: 1000
next table: 2322
cur table: 2409
epoch: 1000
next table: 2552
cur table: 2322
epoch: 1000
next table: 1120
cur table: 1154
epoch: 1000
next table: 2919
cur table: 2552
epoch: 1000
next table: 1049
cur table: 1120
epoch: 1000
next table: 2876
cur table: 2919
epoch: 1000
next table: 1041
cur table: 1049
epoch: 1000
next table: 1992
cur table: 2876
epoch: 1000
next table: 1215
cur table: 1041
epoch: 1000
next table: 2927
cur table: 1992
epoch: 1000
next table: 1057
cur table: 1215
epoch: 1000
next table: 2547
cur table: 2927
epoch: 1000
next table: 1121
cur table: 1057
epoch: 1000
next table: 1431
cur table: 2547
epoch: 1000
next table: 1100
cur table: 1121
epoch: 1000
next table: 1554
cur table: 1431
epoch: 1000
next table: 1080
cur table: 1100
epoch: 1000
next table: 2144
cur table: 1554
epoch: 1000
next table: 1119
cur table: 1080
epoch: 1000
next table: 2476
cur table: 2144
epoch: 1000
next table: 1050
cur table: 1119
epoch: 1000
next table: 2866
cur table: 2476
epoch: 1000
next table: 1086
cur table: 1050
epoch: 1000
next table: 2901
cur table: 2866
epoch: 1000
next table: 1034
cur table: 1086
epoch: 1000
next table: 2930
cur table: 2901
epoch: 1000
next table: 1072
cur table: 1034
epoch: 1000
next table: 2870
cur table: 2930
epoch: 1000
next table: 1080
cur table: 1072
epoch: 1000
next table: 2789
cur table: 2870
epoch: 1000
next table: 1043
cur table: 1080
epoch: 1000
next table: 2948
cur table: 2789
epoch: 1000
next table: 1050
cur table: 1043
epoch: 1000
next table: 3055
cur table: 2948
epoch: 1000
next table: 1059
cur table: 1050
epoch: 1000
next table: 2960
cur table: 3055
epoch: 1000
next table: 1063
cur table: 1059
epoch: 1000
next table: 2894
cur table: 2960
epoch: 1000
next table: 1046
cur table: 1063
epoch: 1000
next table: 2981
cur table: 2894
epoch: 1000
next table: 1046
cur table: 1046
epoch: 1000
next table: 2782
cur table: 2981
epoch: 1000
next table: 1056
cur table: 1046
Heartbeat CPU 0 instructions: 40000000 cycles: 12929842 heartbeat IPC: 3.08328 cumulative IPC: 3.09362 (Simulation time: 0 hr 21 min 58 sec) 
epoch: 1000
next table: 2959
cur table: 2782
epoch: 1000
next table: 1050
cur table: 1056
epoch: 1000
next table: 2788
cur table: 2959
epoch: 1000
next table: 1074
cur table: 1050
epoch: 1000
next table: 2695
cur table: 2788
epoch: 1000
next table: 1045
cur table: 1074
epoch: 1000
next table: 3019
cur table: 2695
epoch: 1000
next table: 1037
cur table: 1045
epoch: 1000
next table: 2905
cur table: 3019
epoch: 1000
next table: 1048
cur table: 1037
epoch: 1000
next table: 2870
cur table: 2905
epoch: 1000
next table: 1043
cur table: 1048
epoch: 1000
next table: 3077
cur table: 2870
epoch: 1000
next table: 1045
cur table: 1043
epoch: 1000
next table: 2867
cur table: 3077
epoch: 1000
next table: 1043
cur table: 1045
epoch: 1000
next table: 2869
cur table: 2867
epoch: 1000
next table: 1073
cur table: 1043
epoch: 1000
next table: 2991
cur table: 2869
epoch: 1000
next table: 1052
cur table: 1073
epoch: 1000
next table: 2894
cur table: 2991
epoch: 1000
next table: 1048
cur table: 1052
epoch: 1000
next table: 2932
cur table: 2894
epoch: 1000
next table: 1043
cur table: 1048
epoch: 1000
next table: 2922
cur table: 2932
epoch: 1000
next table: 1078
cur table: 1043
epoch: 1000
next table: 2815
cur table: 2922
epoch: 1000
next table: 1042
cur table: 1078
epoch: 1000
next table: 2846
cur table: 2815
epoch: 1000
next table: 1051
cur table: 1042
epoch: 1000
next table: 3017
cur table: 2846
epoch: 1000
next table: 1073
cur table: 1051
epoch: 1000
next table: 2754
cur table: 3017
epoch: 1000
next table: 1050
cur table: 1073
epoch: 1000
next table: 2841
cur table: 2754
epoch: 1000
next table: 1058
cur table: 1050
epoch: 1000
next table: 2949
cur table: 2841
epoch: 1000
next table: 1066
cur table: 1058
epoch: 1000
next table: 2967
cur table: 2949
epoch: 1000
next table: 1052
cur table: 1066
epoch: 1000
next table: 2833
cur table: 2967
epoch: 1000
next table: 1038
cur table: 1052
epoch: 1000
next table: 3020
cur table: 2833
epoch: 1000
next table: 1058
cur table: 1038
epoch: 1000
next table: 2838
cur table: 3020
epoch: 1000
next table: 1055
cur table: 1058
epoch: 1000
next table: 2842
cur table: 2838
epoch: 1000
next table: 1061
cur table: 1055
epoch: 1000
next table: 2888
cur table: 2842
epoch: 1000
next table: 1049
cur table: 1061
epoch: 1000
next table: 3006
cur table: 2888
epoch: 1000
next table: 1074
cur table: 1049
epoch: 1000
next table: 2890
cur table: 3006
epoch: 1000
next table: 1043
cur table: 1074
epoch: 1000
next table: 2949
cur table: 2890
epoch: 1000
next table: 1052
cur table: 1043
epoch: 1000
next table: 3051
cur table: 2949
epoch: 1000
next table: 1053
cur table: 1052
epoch: 1000
next table: 3011
cur table: 3051
epoch: 1000
next table: 1063
cur table: 1053
epoch: 1000
next table: 2850
cur table: 3011
epoch: 1000
next table: 1052
cur table: 1063
epoch: 1000
next table: 2831
cur table: 2850
epoch: 1000
next table: 1083
cur table: 1052
epoch: 1000
next table: 2984
cur table: 2831
epoch: 1000
next table: 2974
cur table: 2984
epoch: 1000
next table: 1062
cur table: 1083
epoch: 1000
next table: 3027
cur table: 2974
epoch: 1000
next table: 1052
cur table: 1062
epoch: 1000
next table: 2948
cur table: 3027
epoch: 1000
next table: 1055
cur table: 1052
epoch: 1000
next table: 2915
cur table: 2948
epoch: 1000
next table: 1049
cur table: 1055
epoch: 1000
next table: 2961
cur table: 2915
epoch: 1000
next table: 1071
cur table: 1049
epoch: 1000
next table: 3014
cur table: 2961
epoch: 1000
next table: 1037
cur table: 1071
epoch: 1000
next table: 2914
cur table: 3014
epoch: 1000
next table: 1076
cur table: 1037
epoch: 1000
next table: 2846
cur table: 2914
epoch: 1000
next table: 1045
cur table: 1076
epoch: 1000
next table: 2887
cur table: 2846
epoch: 1000
next table: 1044
cur table: 1045
epoch: 1000
next table: 2894
cur table: 2887
epoch: 1000
next table: 1057
cur table: 1044
epoch: 1000
next table: 2989
cur table: 2894
epoch: 1000
next table: 1049
cur table: 1057
epoch: 1000
next table: 2960
cur table: 2989
epoch: 1000
next table: 1054
cur table: 1049
epoch: 1000
next table: 2846
cur table: 2960
epoch: 1000
next table: 1045
cur table: 1054
epoch: 1000
next table: 2861
cur table: 2846
epoch: 1000
next table: 1051
cur table: 1045
epoch: 1000
next table: 2839
cur table: 2861
epoch: 1000
next table: 1056
cur table: 1051
epoch: 1000
next table: 3074
cur table: 2839
epoch: 1000
next table: 1050
cur table: 1056
epoch: 1000
next table: 2796
cur table: 3074
epoch: 1000
next table: 1053
cur table: 1050
epoch: 1000
next table: 2958
cur table: 2796
epoch: 1000
next table: 1053
cur table: 1053
epoch: 1000
next table: 2971
cur table: 2958
epoch: 1000
next table: 1054
cur table: 1053
epoch: 1000
next table: 2878
cur table: 2971
epoch: 1000
next table: 1062
cur table: 1054
epoch: 1000
next table: 2978
cur table: 2878
epoch: 1000
next table: 1043
cur table: 1062
epoch: 1000
next table: 2935
cur table: 2978
epoch: 1000
next table: 1070
cur table: 1043
epoch: 1000
next table: 2849
cur table: 2935
epoch: 1000
next table: 1053
cur table: 1070
epoch: 1000
next table: 2976
cur table: 2849
epoch: 1000
next table: 1038
cur table: 1053
epoch: 1000
next table: 2805
cur table: 2976
epoch: 1000
next table: 1065
cur table: 1038
epoch: 1000
next table: 2878
cur table: 2805
epoch: 1000
next table: 1039
cur table: 1065
epoch: 1000
next table: 2904
cur table: 2878
epoch: 1000
next table: 1051
cur table: 1039
epoch: 1000
next table: 2968
cur table: 2904
epoch: 1000
next table: 1045
cur table: 1051
epoch: 1000
next table: 2846
cur table: 2968
epoch: 1000
next table: 1041
cur table: 1045
epoch: 1000
next table: 3013
cur table: 2846
epoch: 1000
next table: 1073
cur table: 1041
epoch: 1000
next table: 2859
cur table: 3013
epoch: 1000
next table: 1060
cur table: 1073
epoch: 1000
next table: 2873
cur table: 2859
epoch: 1000
next table: 1059
cur table: 1060
epoch: 1000
next table: 2892
cur table: 2873
epoch: 1000
next table: 1063
cur table: 1059
epoch: 1000
next table: 2769
cur table: 2892
epoch: 1000
next table: 1067
cur table: 1063
epoch: 1000
next table: 2913
cur table: 2769
epoch: 1000
next table: 1034
cur table: 1067
epoch: 1000
next table: 2942
cur table: 2913
epoch: 1000
next table: 1057
cur table: 1034
epoch: 1000
next table: 2796
cur table: 2942
epoch: 1000
next table: 1069
cur table: 1057
epoch: 1000
next table: 2854
cur table: 2796
epoch: 1000
next table: 1053
cur table: 1069
epoch: 1000
next table: 2931
cur table: 2854
epoch: 1000
next table: 1061
cur table: 1053
epoch: 1000
next table: 2887
cur table: 2931
epoch: 1000
next table: 1041
cur table: 1061
epoch: 1000
next table: 2876
cur table: 2887
epoch: 1000
next table: 1043
cur table: 1041
epoch: 1000
next table: 2910
cur table: 2876
epoch: 1000
next table: 1056
cur table: 1043
epoch: 1000
next table: 2975
cur table: 2910
epoch: 1000
next table: 1051
cur table: 1056
epoch: 1000
next table: 2916
cur table: 2975
epoch: 1000
next table: 1036
cur table: 1051
epoch: 1000
next table: 3019
cur table: 2916
epoch: 1000
next table: 1052
cur table: 1036
epoch: 1000
next table: 2849
cur table: 3019
epoch: 1000
next table: 1037
cur table: 1052
epoch: 1000
next table: 3041
cur table: 2849
epoch: 1000
next table: 1042
cur table: 1037
epoch: 1000
next table: 2989
cur table: 3041
epoch: 1000
next table: 1044
cur table: 1042
epoch: 1000
next table: 2981
cur table: 2989
epoch: 1000
next table: 1040
cur table: 1044
epoch: 1000
next table: 2947
cur table: 2981
epoch: 1000
next table: 1056
cur table: 1040
epoch: 1000
next table: 2865
cur table: 2947
epoch: 1000
next table: 1037
cur table: 1056
epoch: 1000
next table: 3028
cur table: 2865
epoch: 1000
next table: 1039
cur table: 1037
Heartbeat CPU 0 instructions: 50000000 cycles: 16149892 heartbeat IPC: 3.10554 cumulative IPC: 3.096 (Simulation time: 0 hr 27 min 20 sec) 

Warmup complete CPU 0 instructions: 50000001 cycles: 16149893 (Simulation time: 0 hr 27 min 20 sec) 

epoch: 1000
next table: 2892
cur table: 2838
epoch: 1000
next table: 1037
cur table: 1051
epoch: 1000
next table: 2880
cur table: 2892
epoch: 1000
next table: 1047
cur table: 1037
epoch: 1000
next table: 2982
cur table: 2880
epoch: 1000
next table: 1033
cur table: 1047
epoch: 1000
next table: 2917
cur table: 2982
epoch: 1000
next table: 1073
cur table: 1033
epoch: 1000
next table: 3012
cur table: 2917
epoch: 1000
next table: 1045
cur table: 1073
epoch: 1000
next table: 2830
cur table: 3012
epoch: 1000
next table: 1063
cur table: 1045
epoch: 1000
next table: 2951
cur table: 2830
epoch: 1000
next table: 1037
cur table: 1063
epoch: 1000
next table: 2997
cur table: 2951
epoch: 1000
next table: 1035
cur table: 1037
epoch: 1000
next table: 3045
cur table: 2997
epoch: 1000
next table: 1045
cur table: 1035
epoch: 1000
next table: 2899
cur table: 3045
epoch: 1000
next table: 1059
cur table: 1045
epoch: 1000
next table: 2985
cur table: 2899
epoch: 1000
next table: 1044
cur table: 1059
epoch: 1000
next table: 2807
cur table: 2985
epoch: 1000
next table: 1072
cur table: 1044
epoch: 1000
next table: 2958
cur table: 2807
epoch: 1000
next table: 1055
cur table: 1072
epoch: 1000
next table: 3014
cur table: 2958
epoch: 1000
next table: 1050
cur table: 1055
epoch: 1000
next table: 3014
cur table: 3014
epoch: 1000
next table: 1056
cur table: 1050
epoch: 1000
next table: 3023
cur table: 3014
epoch: 1000
next table: 1047
cur table: 1056
epoch: 1000
next table: 3022
cur table: 3023
epoch: 1000
next table: 1096
cur table: 1047
epoch: 1000
next table: 2973
cur table: 3022
epoch: 1000
next table: 1043
cur table: 1096
epoch: 1000
next table: 3042
cur table: 2973
epoch: 1000
next table: 1071
cur table: 1043
epoch: 1000
next table: 2926
cur table: 3042
epoch: 1000
next table: 1047
cur table: 1071
epoch: 1000
next table: 2788
cur table: 2926
epoch: 1000
next table: 1072
cur table: 1047
epoch: 1000
next table: 3023
cur table: 2788
epoch: 1000
next table: 1048
cur table: 1072
epoch: 1000
next table: 2762
cur table: 3023
epoch: 1000
next table: 1048
cur table: 1048
epoch: 1000
next table: 2969
cur table: 2762
epoch: 1000
next table: 1062
cur table: 1048
epoch: 1000
next table: 2847
cur table: 2969
epoch: 1000
next table: 1057
cur table: 1062
epoch: 1000
next table: 2828
cur table: 2847
epoch: 1000
next table: 1057
cur table: 1057
epoch: 1000
next table: 2920
cur table: 2828
epoch: 1000
next table: 1040
cur table: 1057
epoch: 1000
next table: 3050
cur table: 2920
epoch: 1000
next table: 1058
cur table: 1040
epoch: 1000
next table: 2797
cur table: 3050
epoch: 1000
next table: 1040
cur table: 1058
epoch: 1000
next table: 2851
cur table: 2797
epoch: 1000
next table: 1044
cur table: 1040
epoch: 1000
next table: 3047
cur table: 2851
epoch: 1000
next table: 1045
cur table: 1044
epoch: 1000
next table: 2839
cur table: 3047
epoch: 1000
next table: 1070
cur table: 1045
epoch: 1000
next table: 2868
cur table: 2839
epoch: 1000
next table: 1099
cur table: 1070
epoch: 1000
next table: 2821
cur table: 2868
epoch: 1000
next table: 1069
cur table: 1099
epoch: 1000
next table: 2855
cur table: 2821
epoch: 1000
next table: 1062
cur table: 1069
epoch: 1000
next table: 2879
cur table: 2855
epoch: 1000
next table: 1072
cur table: 1062
epoch: 1000
next table: 2815
cur table: 2879
epoch: 1000
next table: 1037
cur table: 1072
epoch: 1000
next table: 2918
cur table: 2815
epoch: 1000
next table: 1066
cur table: 1037
epoch: 1000
next table: 2749
cur table: 2918
epoch: 1000
next table: 1083
cur table: 1066
epoch: 1000
next table: 2825
cur table: 2749
epoch: 1000
next table: 1063
cur table: 1083
epoch: 1000
next table: 2970
cur table: 2825
epoch: 1000
next table: 1044
cur table: 1063
epoch: 1000
next table: 2732
cur table: 2970
epoch: 1000
next table: 1051
cur table: 1044
epoch: 1000
next table: 2874
cur table: 2732
epoch: 1000
next table: 1046
cur table: 1051
epoch: 1000
next table: 2812
cur table: 2874
epoch: 1000
next table: 1068
cur table: 1046
epoch: 1000
next table: 2792
cur table: 2812
epoch: 1000
next table: 1057
cur table: 1068
epoch: 1000
next table: 2808
cur table: 2792
epoch: 1000
next table: 1067
cur table: 1057
epoch: 1000
next table: 2920
cur table: 2808
epoch: 1000
next table: 1068
cur table: 1067
epoch: 1000
next table: 2910
cur table: 2920
epoch: 1000
next table: 1050
cur table: 1068
epoch: 1000
next table: 2786
cur table: 2910
epoch: 1000
next table: 1061
cur table: 1050
epoch: 1000
next table: 2872
cur table: 2786
epoch: 1000
next table: 1039
cur table: 1061
epoch: 1000
next table: 3014
cur table: 2872
epoch: 1000
next table: 1055
cur table: 1039
epoch: 1000
next table: 2712
cur table: 3014
epoch: 1000
next table: 1052
cur table: 1055
epoch: 1000
next table: 2923
cur table: 2712
epoch: 1000
next table: 1060
cur table: 1052
epoch: 1000
next table: 2897
cur table: 2923
epoch: 1000
next table: 1064
cur table: 1060
epoch: 1000
next table: 2840
cur table: 2897
epoch: 1000
next table: 1062
cur table: 1064
epoch: 1000
next table: 2974
cur table: 2840
epoch: 1000
next table: 1049
cur table: 1062
epoch: 1000
next table: 2883
cur table: 2974
epoch: 1000
next table: 1051
cur table: 1049
epoch: 1000
next table: 2947
cur table: 2883
epoch: 1000
next table: 2803
cur table: 2947
epoch: 1000
next table: 1072
cur table: 1051
epoch: 1000
next table: 2884
cur table: 2803
epoch: 1000
next table: 2990
cur table: 2884
epoch: 1000
next table: 1100
cur table: 1072
epoch: 1000
next table: 2936
cur table: 2990
epoch: 1000
next table: 2838
cur table: 2936
epoch: 1000
next table: 2771
cur table: 2838
epoch: 1000
next table: 2905
cur table: 2771
epoch: 1000
next table: 2832
cur table: 2905
epoch: 1000
next table: 2976
cur table: 2832
epoch: 1000
next table: 1363
cur table: 1100
epoch: 1000
next table: 2945
cur table: 2976
epoch: 1000
next table: 2791
cur table: 2945
epoch: 1000
next table: 2874
cur table: 2791
epoch: 1000
next table: 3007
cur table: 2874
epoch: 1000
next table: 3023
cur table: 3007
epoch: 1000
next table: 2845
cur table: 3023
epoch: 1000
next table: 2924
cur table: 2845
epoch: 1000
next table: 2794
cur table: 2924
epoch: 1000
next table: 2886
cur table: 2794
epoch: 1000
next table: 3076
cur table: 2886
epoch: 1000
next table: 2887
cur table: 3076
epoch: 1000
next table: 2862
cur table: 2887
epoch: 1000
next table: 1589
cur table: 1363
epoch: 1000
next table: 2878
cur table: 2862
epoch: 1000
next table: 2980
cur table: 2878
epoch: 1000
next table: 2799
cur table: 2980
epoch: 1000
next table: 3018
cur table: 2799
epoch: 1000
next table: 2864
cur table: 3018
Heartbeat CPU 0 instructions: 60000000 cycles: 41237896 heartbeat IPC: 0.398597 cumulative IPC: 0.398597 (Simulation time: 0 hr 32 min 11 sec) 
epoch: 1000
next table: 2960
cur table: 2864
epoch: 1000
next table: 1319
cur table: 1589
epoch: 1000
next table: 2875
cur table: 2960
epoch: 1000
next table: 2746
cur table: 2875
epoch: 1000
next table: 1083
cur table: 1319
epoch: 1000
next table: 2843
cur table: 2746
epoch: 1000
next table: 1090
cur table: 1083
epoch: 1000
next table: 2848
cur table: 2843
epoch: 1000
next table: 1037
cur table: 1090
epoch: 1000
next table: 2467
cur table: 2848
epoch: 1000
next table: 1150
cur table: 1037
epoch: 1000
next table: 2773
cur table: 2467
epoch: 1000
next table: 1060
cur table: 1150
epoch: 1000
next table: 2566
cur table: 2773
epoch: 1000
next table: 1107
cur table: 1060
epoch: 1000
next table: 2515
cur table: 2566
epoch: 1000
next table: 1180
cur table: 1107
epoch: 1000
next table: 2274
cur table: 2515
epoch: 1000
next table: 1160
cur table: 1180
epoch: 1000
next table: 2724
cur table: 2274
epoch: 1000
next table: 1137
cur table: 1160
epoch: 1000
next table: 2527
cur table: 2724
epoch: 1000
next table: 1084
cur table: 1137
epoch: 1000
next table: 2765
cur table: 2527
epoch: 1000
next table: 1080
cur table: 1084
epoch: 1000
next table: 2768
cur table: 2765
epoch: 1000
next table: 1058
cur table: 1080
epoch: 1000
next table: 2850
cur table: 2768
epoch: 1000
next table: 1051
cur table: 1058
epoch: 1000
next table: 2673
cur table: 2850
epoch: 1000
next table: 1162
cur table: 1051
epoch: 1000
next table: 2370
cur table: 2673
epoch: 1000
next table: 1155
cur table: 1162
epoch: 1000
next table: 2410
cur table: 2370
epoch: 1000
next table: 1076
cur table: 1155
epoch: 1000
next table: 2334
cur table: 2410
epoch: 1000
next table: 1180
cur table: 1076
epoch: 1000
next table: 2557
cur table: 2334
epoch: 1000
next table: 1050
cur table: 1180
epoch: 1000
next table: 3007
cur table: 2557
epoch: 1000
next table: 1041
cur table: 1050
epoch: 1000
next table: 2782
cur table: 3007
epoch: 1000
next table: 1155
cur table: 1041
epoch: 1000
next table: 2121
cur table: 2782
epoch: 1000
next table: 1096
cur table: 1155
epoch: 1000
next table: 2926
cur table: 2121
epoch: 1000
next table: 1058
cur table: 1096
epoch: 1000
next table: 2558
cur table: 2926
epoch: 1000
next table: 1911
cur table: 1058
epoch: 1000
next table: 1913
cur table: 2558
epoch: 1000
next table: 1423
cur table: 1911
epoch: 1000
next table: 1634
cur table: 1913
epoch: 1000
next table: 1388
cur table: 1423
epoch: 1000
next table: 1662
cur table: 1634
epoch: 1000
next table: 1551
cur table: 1662
epoch: 1000
next table: 1426
cur table: 1388
epoch: 1000
next table: 1580
cur table: 1551
epoch: 1000
next table: 1379
cur table: 1426
epoch: 1000
next table: 1431
cur table: 1580
epoch: 1000
next table: 1258
cur table: 1379
epoch: 1000
next table: 1411
cur table: 1431
epoch: 1000
next table: 1276
cur table: 1258
epoch: 1000
next table: 1381
cur table: 1411
epoch: 1000
next table: 1225
cur table: 1276
epoch: 1000
next table: 1447
cur table: 1381
epoch: 1000
next table: 1248
cur table: 1225
epoch: 1000
next table: 1910
cur table: 1447
epoch: 1000
next table: 1229
cur table: 1248
epoch: 1000
next table: 2791
cur table: 1910
epoch: 1000
next table: 1763
cur table: 1229
epoch: 1000
next table: 1835
cur table: 2791
epoch: 1000
next table: 1390
cur table: 1763
epoch: 1000
next table: 2442
cur table: 1835
epoch: 1000
next table: 1081
cur table: 1390
epoch: 1000
next table: 2366
cur table: 2442
epoch: 1000
next table: 1058
cur table: 1081
epoch: 1000
next table: 2921
cur table: 2366
epoch: 1000
next table: 1054
cur table: 1058
epoch: 1000
next table: 2899
cur table: 2921
epoch: 1000
next table: 1070
cur table: 1054
epoch: 1000
next table: 2836
cur table: 2899
epoch: 1000
next table: 2900
cur table: 2836
epoch: 1000
next table: 1039
cur table: 1070
epoch: 1000
next table: 2816
cur table: 2900
epoch: 1000
next table: 1070
cur table: 1039
epoch: 1000
next table: 2976
cur table: 2816
epoch: 1000
next table: 1046
cur table: 1070
epoch: 1000
next table: 3054
cur table: 2976
epoch: 1000
next table: 1038
cur table: 1046
epoch: 1000
next table: 2967
cur table: 3054
epoch: 1000
next table: 1076
cur table: 1038
epoch: 1000
next table: 2839
cur table: 2967
epoch: 1000
next table: 1054
cur table: 1076
epoch: 1000
next table: 3036
cur table: 2839
epoch: 1000
next table: 1051
cur table: 1054
epoch: 1000
next table: 2850
cur table: 3036
epoch: 1000
next table: 1050
cur table: 1051
epoch: 1000
next table: 2844
cur table: 2850
epoch: 1000
next table: 1090
cur table: 1050
epoch: 1000
next table: 2895
cur table: 2844
epoch: 1000
next table: 2631
cur table: 2895
epoch: 1000
next table: 1086
cur table: 1090
epoch: 1000
next table: 3021
cur table: 2631
epoch: 1000
next table: 1039
cur table: 1086
epoch: 1000
next table: 2971
cur table: 3021
epoch: 1000
next table: 1040
cur table: 1039
epoch: 1000
next table: 2867
cur table: 2971
epoch: 1000
next table: 1044
cur table: 1040
epoch: 1000
next table: 2940
cur table: 2867
epoch: 1000
next table: 1052
cur table: 1044
epoch: 1000
next table: 2943
cur table: 2940
epoch: 1000
next table: 1049
cur table: 1052
epoch: 1000
next table: 2871
cur table: 2943
epoch: 1000
next table: 1047
cur table: 1049
epoch: 1000
next table: 2949
cur table: 2871
epoch: 1000
next table: 1042
cur table: 1047
epoch: 1000
next table: 2995
cur table: 2949
epoch: 1000
next table: 1061
cur table: 1042
epoch: 1000
next table: 2872
cur table: 2995
epoch: 1000
next table: 1045
cur table: 1061
epoch: 1000
next table: 2903
cur table: 2872
epoch: 1000
next table: 1057
cur table: 1045
epoch: 1000
next table: 2951
cur table: 2903
epoch: 1000
next table: 1054
cur table: 1057
epoch: 1000
next table: 2718
cur table: 2951
epoch: 1000
next table: 1063
cur table: 1054
epoch: 1000
next table: 2960
cur table: 2718
epoch: 1000
next table: 1051
cur table: 1063
epoch: 1000
next table: 2812
cur table: 2960
epoch: 1000
next table: 1067
cur table: 1051
epoch: 1000
next table: 2838
cur table: 2812
epoch: 1000
next table: 1056
cur table: 1067
epoch: 1000
next table: 2995
cur table: 2838
epoch: 1000
next table: 1061
cur table: 1056
epoch: 1000
next table: 2923
cur table: 2995
epoch: 1000
next table: 1056
cur table: 1061
epoch: 1000
next table: 2830
cur table: 2923
epoch: 1000
next table: 1040
cur table: 1056
epoch: 1000
next table: 3000
cur table: 2830
epoch: 1000
next table: 1047
cur table: 1040
epoch: 1000
next table: 2862
cur table: 3000
epoch: 1000
next table: 1061
cur table: 1047
epoch: 1000
next table: 2779
cur table: 2862
epoch: 1000
next table: 1059
cur table: 1061
epoch: 1000
next table: 3036
cur table: 2779
epoch: 1000
next table: 1051
cur table: 1059
epoch: 1000
next table: 2920
cur table: 3036
epoch: 1000
next table: 1060
cur table: 1051
epoch: 1000
next table: 2888
cur table: 2920
epoch: 1000
next table: 1067
cur table: 1060
epoch: 1000
next table: 2994
cur table: 2888
epoch: 1000
next table: 1060
cur table: 1067
epoch: 1000
next table: 3007
cur table: 2994
epoch: 1000
next table: 1055
cur table: 1060
epoch: 1000
next table: 3013
cur table: 3007
epoch: 1000
next table: 1051
cur table: 1055
epoch: 1000
next table: 2854
cur table: 3013
epoch: 1000
next table: 1062
cur table: 1051
epoch: 1000
next table: 2888
cur table: 2854
epoch: 1000
next table: 1078
cur table: 1062
epoch: 1000
next table: 2928
cur table: 2888
epoch: 1000
next table: 1057
cur table: 1078
epoch: 1000
next table: 2967
cur table: 2928
epoch: 1000
next table: 1050
cur table: 1057
epoch: 1000
next table: 2959
cur table: 2967
epoch: 1000
next table: 1044
cur table: 1050
epoch: 1000
next table: 3014
cur table: 2959
epoch: 1000
next table: 1050
cur table: 1044
epoch: 1000
next table: 2860
cur table: 3014
epoch: 1000
next table: 1046
cur table: 1050
epoch: 1000
next table: 2960
cur table: 2860
epoch: 1000
next table: 1045
cur table: 1046
epoch: 1000
next table: 3018
cur table: 2960
epoch: 1000
next table: 1074
cur table: 1045
epoch: 1000
next table: 2841
cur table: 3018
epoch: 1000
next table: 1045
cur table: 1074
epoch: 1000
next table: 2848
cur table: 2841
epoch: 1000
next table: 1046
cur table: 1045
epoch: 1000
next table: 2949
cur table: 2848
epoch: 1000
next table: 1059
cur table: 1046
epoch: 1000
next table: 2899
cur table: 2949
epoch: 1000
next table: 2925
cur table: 2899
epoch: 1000
next table: 1052
cur table: 1059
epoch: 1000
next table: 3011
cur table: 2925
epoch: 1000
next table: 1058
cur table: 1052
epoch: 1000
next table: 2796
cur table: 3011
epoch: 1000
next table: 1043
cur table: 1058
epoch: 1000
next table: 2861
cur table: 2796
epoch: 1000
next table: 1054
cur table: 1043
Heartbeat CPU 0 instructions: 70000002 cycles: 67400183 heartbeat IPC: 0.38223 cumulative IPC: 0.390242 (Simulation time: 0 hr 36 min 26 sec) 
epoch: 1000
next table: 2905
cur table: 2861
epoch: 1000
next table: 1059
cur table: 1054
epoch: 1000
next table: 2947
cur table: 2905
epoch: 1000
next table: 1042
cur table: 1059
epoch: 1000
next table: 2861
cur table: 2947
epoch: 1000
next table: 1052
cur table: 1042
epoch: 1000
next table: 2965
cur table: 2861
epoch: 1000
next table: 1057
cur table: 1052
epoch: 1000
next table: 2964
cur table: 2965
epoch: 1000
next table: 1082
cur table: 1057
epoch: 1000
next table: 2943
cur table: 2964
epoch: 1000
next table: 1038
cur table: 1082
epoch: 1000
next table: 2979
cur table: 2943
epoch: 1000
next table: 1044
cur table: 1038
epoch: 1000
next table: 2866
cur table: 2979
epoch: 1000
next table: 1078
cur table: 1044
epoch: 1000
next table: 2853
cur table: 2866
epoch: 1000
next table: 1048
cur table: 1078
epoch: 1000
next table: 2951
cur table: 2853
epoch: 1000
next table: 1039
cur table: 1048
epoch: 1000
next table: 2832
cur table: 2951
epoch: 1000
next table: 1067
cur table: 1039
epoch: 1000
next table: 2871
cur table: 2832
epoch: 1000
next table: 1046
cur table: 1067
epoch: 1000
next table: 2915
cur table: 2871
epoch: 1000
next table: 2901
cur table: 2915
epoch: 1000
next table: 1080
cur table: 1046
epoch: 1000
next table: 2782
cur table: 2901
epoch: 1000
next table: 1044
cur table: 1080
epoch: 1000
next table: 3035
cur table: 2782
epoch: 1000
next table: 1069
cur table: 1044
epoch: 1000
next table: 2900
cur table: 3035
epoch: 1000
next table: 1056
cur table: 1069
epoch: 1000
next table: 2811
cur table: 2900
epoch: 1000
next table: 1059
cur table: 1056
epoch: 1000
next table: 2893
cur table: 2811
epoch: 1000
next table: 1062
cur table: 1059
epoch: 1000
next table: 2834
cur table: 2893
epoch: 1000
next table: 1068
cur table: 1062
epoch: 1000
next table: 2846
cur table: 2834
epoch: 1000
next table: 1038
cur table: 1068
epoch: 1000
next table: 2945
cur table: 2846
epoch: 1000
next table: 1056
cur table: 1038
epoch: 1000
next table: 2795
cur table: 2945
epoch: 1000
next table: 1065
cur table: 1056
epoch: 1000
next table: 2897
cur table: 2795
epoch: 1000
next table: 1054
cur table: 1065
epoch: 1000
next table: 2888
cur table: 2897
epoch: 1000
next table: 1056
cur table: 1054
epoch: 1000
next table: 2827
cur table: 2888
epoch: 1000
next table: 1044
cur table: 1056
epoch: 1000
next table: 2953
cur table: 2827
epoch: 1000
next table: 1042
cur table: 1044
epoch: 1000
next table: 2829
cur table: 2953
epoch: 1000
next table: 1052
cur table: 1042
epoch: 1000
next table: 2976
cur table: 2829
epoch: 1000
next table: 1050
cur table: 1052
epoch: 1000
next table: 2892
cur table: 2976
epoch: 1000
next table: 1037
cur table: 1050
epoch: 1000
next table: 3041
cur table: 2892
epoch: 1000
next table: 1051
cur table: 1037
epoch: 1000
next table: 2851
cur table: 3041
epoch: 1000
next table: 1036
cur table: 1051
epoch: 1000
next table: 2982
cur table: 2851
epoch: 1000
next table: 1038
cur table: 1036
epoch: 1000
next table: 3019
cur table: 2982
epoch: 1000
next table: 1045
cur table: 1038
epoch: 1000
next table: 2954
cur table: 3019
epoch: 1000
next table: 1046
cur table: 1045
epoch: 1000
next table: 3012
cur table: 2954
epoch: 1000
next table: 1055
cur table: 1046
epoch: 1000
next table: 2858
cur table: 3012
epoch: 1000
next table: 1035
cur table: 1055
epoch: 1000
next table: 3025
cur table: 2858
epoch: 1000
next table: 1043
cur table: 1035
epoch: 1000
next table: 2942
cur table: 3025
epoch: 1000
next table: 1038
cur table: 1043
epoch: 1000
next table: 2772
cur table: 2942
epoch: 1000
next table: 1044
cur table: 1038
epoch: 1000
next table: 3015
cur table: 2772
epoch: 1000
next table: 1044
cur table: 1044
epoch: 1000
next table: 2886
cur table: 3015
epoch: 1000
next table: 1035
cur table: 1044
epoch: 1000
next table: 2979
cur table: 2886
epoch: 1000
next table: 1074
cur table: 1035
epoch: 1000
next table: 2854
cur table: 2979
epoch: 1000
next table: 1041
cur table: 1074
epoch: 1000
next table: 3014
cur table: 2854
epoch: 1000
next table: 1062
cur table: 1041
epoch: 1000
next table: 2833
cur table: 3014
epoch: 1000
next table: 1038
cur table: 1062
epoch: 1000
next table: 2985
cur table: 2833
epoch: 1000
next table: 2961
cur table: 2985
epoch: 1000
next table: 1042
cur table: 1038
epoch: 1000
next table: 2987
cur table: 2961
epoch: 1000
next table: 1045
cur table: 1042
epoch: 1000
next table: 2896
cur table: 2987
epoch: 1000
next table: 1060
cur table: 1045
epoch: 1000
next table: 2985
cur table: 2896
epoch: 1000
next table: 1069
cur table: 1060
epoch: 1000
next table: 2812
cur table: 2985
epoch: 1000
next table: 1043
cur table: 1069
epoch: 1000
next table: 2955
cur table: 2812
epoch: 1000
next table: 1055
cur table: 1043
epoch: 1000
next table: 3092
cur table: 2955
epoch: 1000
next table: 1049
cur table: 1055
epoch: 1000
next table: 2996
cur table: 3092
epoch: 1000
next table: 1065
cur table: 1049
epoch: 1000
next table: 2965
cur table: 2996
epoch: 1000
next table: 1042
cur table: 1065
epoch: 1000
next table: 2957
cur table: 2965
epoch: 1000
next table: 1093
cur table: 1042
epoch: 1000
next table: 3016
cur table: 2957
epoch: 1000
next table: 1045
cur table: 1093
epoch: 1000
next table: 3061
cur table: 3016
epoch: 1000
next table: 1104
cur table: 1045
epoch: 1000
next table: 2931
cur table: 3061
epoch: 1000
next table: 1036
cur table: 1104
epoch: 1000
next table: 2729
cur table: 2931
epoch: 1000
next table: 1075
cur table: 1036
epoch: 1000
next table: 3082
cur table: 2729
epoch: 1000
next table: 1052
cur table: 1075
epoch: 1000
next table: 2765
cur table: 3082
epoch: 1000
next table: 1061
cur table: 1052
epoch: 1000
next table: 2908
cur table: 2765
epoch: 1000
next table: 1042
cur table: 1061
epoch: 1000
next table: 2843
cur table: 2908
epoch: 1000
next table: 1064
cur table: 1042
epoch: 1000
next table: 2887
cur table: 2843
epoch: 1000
next table: 1048
cur table: 1064
epoch: 1000
next table: 2859
cur table: 2887
epoch: 1000
next table: 1038
cur table: 1048
epoch: 1000
next table: 3109
cur table: 2859
epoch: 1000
next table: 1059
cur table: 1038
epoch: 1000
next table: 2737
cur table: 3109
epoch: 1000
next table: 1049
cur table: 1059
epoch: 1000
next table: 2891
cur table: 2737
epoch: 1000
next table: 1035
cur table: 1049
epoch: 1000
next table: 3010
cur table: 2891
epoch: 1000
next table: 1056
cur table: 1035
epoch: 1000
next table: 2840
cur table: 3010
epoch: 1000
next table: 1107
cur table: 1056
epoch: 1000
next table: 2867
cur table: 2840
epoch: 1000
next table: 1050
cur table: 1107
epoch: 1000
next table: 2758
cur table: 2867
epoch: 1000
next table: 1066
cur table: 1050
epoch: 1000
next table: 2857
cur table: 2758
epoch: 1000
next table: 1066
cur table: 1066
epoch: 1000
next table: 2815
cur table: 2857
epoch: 1000
next table: 1062
cur table: 1066
epoch: 1000
next table: 2813
cur table: 2815
epoch: 1000
next table: 1048
cur table: 1062
epoch: 1000
next table: 2918
cur table: 2813
epoch: 1000
next table: 1050
cur table: 1048
epoch: 1000
next table: 2747
cur table: 2918
epoch: 1000
next table: 1083
cur table: 1050
epoch: 1000
next table: 2869
cur table: 2747
epoch: 1000
next table: 1067
cur table: 1083
epoch: 1000
next table: 2868
cur table: 2869
epoch: 1000
next table: 1042
cur table: 1067
epoch: 1000
next table: 2790
cur table: 2868
epoch: 1000
next table: 1058
cur table: 1042
epoch: 1000
next table: 2877
cur table: 2790
epoch: 1000
next table: 2807
cur table: 2877
epoch: 1000
next table: 1068
cur table: 1058
epoch: 1000
next table: 2818
cur table: 2807
epoch: 1000
next table: 1089
cur table: 1068
Heartbeat CPU 0 instructions: 80000000 cycles: 92414560 heartbeat IPC: 0.39977 cumulative IPC: 0.393367 (Simulation time: 0 hr 39 min 56 sec) 
epoch: 1000
next table: 2728
cur table: 2818
epoch: 1000
next table: 1054
cur table: 1089
epoch: 1000
next table: 2918
cur table: 2728
epoch: 1000
next table: 1051
cur table: 1054
epoch: 1000
next table: 2979
cur table: 2918
epoch: 1000
next table: 1055
cur table: 1051
epoch: 1000
next table: 2785
cur table: 2979
epoch: 1000
next table: 1044
cur table: 1055
epoch: 1000
next table: 2871
cur table: 2785
epoch: 1000
next table: 1051
cur table: 1044
epoch: 1000
next table: 2957
cur table: 2871
epoch: 1000
next table: 1057
cur table: 1051
epoch: 1000
next table: 2773
cur table: 2957
epoch: 1000
next table: 1051
cur table: 1057
epoch: 1000
next table: 2913
cur table: 2773
epoch: 1000
next table: 1047
cur table: 1051
epoch: 1000
next table: 2843
cur table: 2913
epoch: 1000
next table: 1051
cur table: 1047
epoch: 1000
next table: 2864
cur table: 2843
epoch: 1000
next table: 1093
cur table: 1051
epoch: 1000
next table: 3011
cur table: 2864
epoch: 1000
next table: 1038
cur table: 1093
epoch: 1000
next table: 2885
cur table: 3011
epoch: 1000
next table: 1064
cur table: 1038
epoch: 1000
next table: 2882
cur table: 2885
epoch: 1000
next table: 1042
cur table: 1064
epoch: 1000
next table: 2916
cur table: 2882
epoch: 1000
next table: 1078
cur table: 1042
epoch: 1000
next table: 2771
cur table: 2916
epoch: 1000
next table: 1039
cur table: 1078
epoch: 1000
next table: 2972
cur table: 2771
epoch: 1000
next table: 1037
cur table: 1039
epoch: 1000
next table: 2997
cur table: 2972
epoch: 1000
next table: 1050
cur table: 1037
epoch: 1000
next table: 2796
cur table: 2997
epoch: 1000
next table: 1065
cur table: 1050
epoch: 1000
next table: 2776
cur table: 2796
epoch: 1000
next table: 1070
cur table: 1065
epoch: 1000
next table: 2907
cur table: 2776
epoch: 1000
next table: 1061
cur table: 1070
epoch: 1000
next table: 2827
cur table: 2907
epoch: 1000
next table: 1036
cur table: 1061
epoch: 1000
next table: 2977
cur table: 2827
epoch: 1000
next table: 1059
cur table: 1036
epoch: 1000
next table: 2883
cur table: 2977
epoch: 1000
next table: 1072
cur table: 1059
epoch: 1000
next table: 2726
cur table: 2883
epoch: 1000
next table: 1036
cur table: 1072
epoch: 1000
next table: 3001
cur table: 2726
epoch: 1000
next table: 1040
cur table: 1036
epoch: 1000
next table: 2946
cur table: 3001
epoch: 1000
next table: 1049
cur table: 1040
epoch: 1000
next table: 2956
cur table: 2946
epoch: 1000
next table: 1052
cur table: 1049
epoch: 1000
next table: 2911
cur table: 2956
epoch: 1000
next table: 2862
cur table: 2911
epoch: 1000
next table: 1053
cur table: 1052
epoch: 1000
next table: 2792
cur table: 2862
epoch: 1000
next table: 1073
cur table: 1053
epoch: 1000
next table: 2971
cur table: 2792
epoch: 1000
next table: 1046
cur table: 1073
epoch: 1000
next table: 2930
cur table: 2971
epoch: 1000
next table: 1037
cur table: 1046
epoch: 1000
next table: 2948
cur table: 2930
epoch: 1000
next table: 1051
cur table: 1037
epoch: 1000
next table: 2863
cur table: 2948
epoch: 1000
next table: 1049
cur table: 1051
epoch: 1000
next table: 2884
cur table: 2863
epoch: 1000
next table: 1040
cur table: 1049
epoch: 1000
next table: 2909
cur table: 2884
epoch: 1000
next table: 1070
cur table: 1040
epoch: 1000
next table: 2881
cur table: 2909
epoch: 1000
next table: 1055
cur table: 1070
epoch: 1000
next table: 2946
cur table: 2881
epoch: 1000
next table: 1056
cur table: 1055
epoch: 1000
next table: 2918
cur table: 2946
epoch: 1000
next table: 1046
cur table: 1056
epoch: 1000
next table: 2970
cur table: 2918
epoch: 1000
next table: 2839
cur table: 2970
epoch: 1000
next table: 1060
cur table: 1046
epoch: 1000
next table: 2774
cur table: 2839
epoch: 1000
next table: 1088
cur table: 1060
epoch: 1000
next table: 3006
cur table: 2774
epoch: 1000
next table: 1074
cur table: 1088
epoch: 1000
next table: 2609
cur table: 3006
epoch: 1000
next table: 1075
cur table: 1074
epoch: 1000
next table: 2913
cur table: 2609
epoch: 1000
next table: 1082
cur table: 1075
epoch: 1000
next table: 2720
cur table: 2913
epoch: 1000
next table: 1044
cur table: 1082
epoch: 1000
next table: 2862
cur table: 2720
epoch: 1000
next table: 1117
cur table: 1044
epoch: 1000
next table: 2743
cur table: 2862
epoch: 1000
next table: 1047
cur table: 1117
epoch: 1000
next table: 2907
cur table: 2743
epoch: 1000
next table: 1037
cur table: 1047
epoch: 1000
next table: 2944
cur table: 2907
epoch: 1000
next table: 1096
cur table: 1037
epoch: 1000
next table: 2588
cur table: 2944
epoch: 1000
next table: 1063
cur table: 1096
epoch: 1000
next table: 2955
cur table: 2588
epoch: 1000
next table: 1103
cur table: 1063
epoch: 1000
next table: 2575
cur table: 2955
epoch: 1000
next table: 1080
cur table: 1103
epoch: 1000
next table: 2821
cur table: 2575
epoch: 1000
next table: 1085
cur table: 1080
epoch: 1000
next table: 2674
cur table: 2821
epoch: 1000
next table: 1042
cur table: 1085
epoch: 1000
next table: 3003
cur table: 2674
epoch: 1000
next table: 1047
cur table: 1042
epoch: 1000
next table: 2585
cur table: 3003
epoch: 1000
next table: 1155
cur table: 1047
epoch: 1000
next table: 2871
cur table: 2585
epoch: 1000
next table: 1053
cur table: 1155
epoch: 1000
next table: 2844
cur table: 2871
epoch: 1000
next table: 1040
cur table: 1053
epoch: 1000
next table: 2837
cur table: 2844
epoch: 1000
next table: 1104
cur table: 1040
epoch: 1000
next table: 2788
cur table: 2837
epoch: 1000
next table: 1066
cur table: 1104
epoch: 1000
next table: 2806
cur table: 2788
epoch: 1000
next table: 1041
cur table: 1066
epoch: 1000
next table: 3006
cur table: 2806
epoch: 1000
next table: 1062
cur table: 1041
epoch: 1000
next table: 2774
cur table: 3006
epoch: 1000
next table: 1073
cur table: 1062
epoch: 1000
next table: 2691
cur table: 2774
epoch: 1000
next table: 1038
cur table: 1073
epoch: 1000
next table: 2941
cur table: 2691
epoch: 1000
next table: 2875
cur table: 2941
epoch: 1000
next table: 1060
cur table: 1038
epoch: 1000
next table: 2857
cur table: 2875
epoch: 1000
next table: 1064
cur table: 1060
epoch: 1000
next table: 2546
cur table: 2857
epoch: 1000
next table: 1137
cur table: 1064
epoch: 1000
next table: 2814
cur table: 2546
epoch: 1000
next table: 1062
cur table: 1137
epoch: 1000
next table: 2794
cur table: 2814
epoch: 1000
next table: 1055
cur table: 1062
epoch: 1000
next table: 3010
cur table: 2794
epoch: 1000
next table: 1047
cur table: 1055
epoch: 1000
next table: 2808
cur table: 3010
epoch: 1000
next table: 1050
cur table: 1047
epoch: 1000
next table: 2823
cur table: 2808
epoch: 1000
next table: 1043
cur table: 1050
epoch: 1000
next table: 3073
cur table: 2823
epoch: 1000
next table: 1056
cur table: 1043
epoch: 1000
next table: 2772
cur table: 3073
epoch: 1000
next table: 1058
cur table: 1056
epoch: 1000
next table: 2822
cur table: 2772
epoch: 1000
next table: 1048
cur table: 1058
epoch: 1000
next table: 2899
cur table: 2822
epoch: 1000
next table: 1077
cur table: 1048
epoch: 1000
next table: 2910
cur table: 2899
epoch: 1000
next table: 1087
cur table: 1077
epoch: 1000
next table: 2808
cur table: 2910
epoch: 1000
next table: 1053
cur table: 1087
epoch: 1000
next table: 2953
cur table: 2808
epoch: 1000
next table: 1047
cur table: 1053
epoch: 1000
next table: 2852
cur table: 2953
epoch: 1000
next table: 1062
cur table: 1047
epoch: 1000
next table: 2810
cur table: 2852
epoch: 1000
next table: 1057
cur table: 1062
epoch: 1000
next table: 2920
cur table: 2810
epoch: 1000
next table: 1045
cur table: 1057
epoch: 1000
next table: 2943
cur table: 2920
epoch: 1000
next table: 1051
cur table: 1045
epoch: 1000
next table: 2913
cur table: 2943
epoch: 1000
next table: 1046
cur table: 1051
epoch: 1000
next table: 2856
cur table: 2913
epoch: 1000
next table: 1063
cur table: 1046
epoch: 1000
next table: 2879
cur table: 2856
Heartbeat CPU 0 instructions: 90000000 cycles: 117613754 heartbeat IPC: 0.396838 cumulative IPC: 0.394229 (Simulation time: 0 hr 42 min 53 sec) 
epoch: 1000
next table: 1167
cur table: 1063
epoch: 1000
next table: 2228
cur table: 2879
epoch: 1000
next table: 1111
cur table: 1167
epoch: 1000
next table: 2780
cur table: 2228
epoch: 1000
next table: 1086
cur table: 1111
epoch: 1000
next table: 2703
cur table: 2780
epoch: 1000
next table: 1042
cur table: 1086
epoch: 1000
next table: 3008
cur table: 2703
epoch: 1000
next table: 1055
cur table: 1042
epoch: 1000
next table: 2801
cur table: 3008
epoch: 1000
next table: 1066
cur table: 1055
epoch: 1000
next table: 2963
cur table: 2801
epoch: 1000
next table: 2790
cur table: 2963
epoch: 1000
next table: 1058
cur table: 1066
epoch: 1000
next table: 2872
cur table: 2790
epoch: 1000
next table: 1043
cur table: 1058
epoch: 1000
next table: 2902
cur table: 2872
epoch: 1000
next table: 1060
cur table: 1043
epoch: 1000
next table: 2797
cur table: 2902
epoch: 1000
next table: 1049
cur table: 1060
epoch: 1000
next table: 2792
cur table: 2797
epoch: 1000
next table: 1053
cur table: 1049
epoch: 1000
next table: 2749
cur table: 2792
epoch: 1000
next table: 1094
cur table: 1053
epoch: 1000
next table: 2703
cur table: 2749
epoch: 1000
next table: 1135
cur table: 1094
epoch: 1000
next table: 2590
cur table: 2703
epoch: 1000
next table: 1043
cur table: 1135
epoch: 1000
next table: 2307
cur table: 2590
epoch: 1000
next table: 1166
cur table: 1043
epoch: 1000
next table: 2896
cur table: 2307
epoch: 1000
next table: 1048
cur table: 1166
epoch: 1000
next table: 2926
cur table: 2896
epoch: 1000
next table: 1040
cur table: 1048
epoch: 1000
next table: 2690
cur table: 2926
epoch: 1000
next table: 2383
cur table: 2690
epoch: 1000
next table: 1198
cur table: 1040
epoch: 1000
next table: 2643
cur table: 2383
epoch: 1000
next table: 1084
cur table: 1198
epoch: 1000
next table: 2891
cur table: 2643
epoch: 1000
next table: 1163
cur table: 1084
epoch: 1000
next table: 1921
cur table: 2891
epoch: 1000
next table: 1123
cur table: 1163
epoch: 1000
next table: 2651
cur table: 1921
epoch: 1000
next table: 2292
cur table: 2651
epoch: 1000
next table: 1170
cur table: 1123
epoch: 1000
next table: 2928
cur table: 2292
epoch: 1000
next table: 1153
cur table: 1170
epoch: 1000
next table: 1406
cur table: 2928
epoch: 1000
next table: 2239
cur table: 1406
epoch: 1000
next table: 1930
cur table: 2239
epoch: 1000
next table: 1946
cur table: 1930
epoch: 1000
next table: 1913
cur table: 1946
epoch: 1000
next table: 1540
cur table: 1153
epoch: 1000
next table: 1927
cur table: 1913
epoch: 1000
next table: 1944
cur table: 1927
epoch: 1000
next table: 1991
cur table: 1944
epoch: 1000
next table: 1903
cur table: 1991
epoch: 1000
next table: 1903
cur table: 1903
epoch: 1000
next table: 1404
cur table: 1540
epoch: 1000
next table: 1895
cur table: 1903
epoch: 1000
next table: 1076
cur table: 1404
epoch: 1000
next table: 1925
cur table: 1895
epoch: 1000
next table: 1055
cur table: 1076
epoch: 1000
next table: 1898
cur table: 1925
epoch: 1000
next table: 1069
cur table: 1055
epoch: 1000
next table: 1945
cur table: 1898
epoch: 1000
next table: 1060
cur table: 1069
epoch: 1000
next table: 1948
cur table: 1945
epoch: 1000
next table: 1080
cur table: 1060
epoch: 1000
next table: 1911
cur table: 1948
epoch: 1000
next table: 1063
cur table: 1080
epoch: 1000
next table: 1948
cur table: 1911
epoch: 1000
next table: 1052
cur table: 1063
epoch: 1000
next table: 1903
cur table: 1948
epoch: 1000
next table: 1059
cur table: 1052
epoch: 1000
next table: 1902
cur table: 1903
epoch: 1000
next table: 1097
cur table: 1059
epoch: 1000
next table: 1938
cur table: 1902
epoch: 1000
next table: 1060
cur table: 1097
epoch: 1000
next table: 1917
cur table: 1938
epoch: 1000
next table: 1075
cur table: 1060
epoch: 1000
next table: 1978
cur table: 1917
epoch: 1000
next table: 1077
cur table: 1075
epoch: 1000
next table: 1903
cur table: 1978
epoch: 1000
next table: 1066
cur table: 1077
epoch: 1000
next table: 1925
cur table: 1903
epoch: 1000
next table: 1058
cur table: 1066
epoch: 1000
next table: 1963
cur table: 1925
epoch: 1000
next table: 1077
cur table: 1058
epoch: 1000
next table: 1891
cur table: 1963
epoch: 1000
next table: 1067
cur table: 1077
epoch: 1000
next table: 1941
cur table: 1891
epoch: 1000
next table: 1054
cur table: 1067
epoch: 1000
next table: 1968
cur table: 1941
epoch: 1000
next table: 1050
cur table: 1054
epoch: 1000
next table: 1987
cur table: 1968
epoch: 1000
next table: 1066
cur table: 1050
epoch: 1000
next table: 1985
cur table: 1987
epoch: 1000
next table: 1949
cur table: 1985
epoch: 1000
next table: 1090
cur table: 1066
epoch: 1000
next table: 1921
cur table: 1949
epoch: 1000
next table: 1067
cur table: 1090
epoch: 1000
next table: 1958
cur table: 1921
epoch: 1000
next table: 1068
cur table: 1067
epoch: 1000
next table: 1941
cur table: 1958
epoch: 1000
next table: 1075
cur table: 1068
epoch: 1000
next table: 1983
cur table: 1941
epoch: 1000
next table: 1046
cur table: 1075
epoch: 1000
next table: 1932
cur table: 1983
epoch: 1000
next table: 1945
cur table: 1932
epoch: 1000
next table: 1950
cur table: 1945
epoch: 1000
next table: 1160
cur table: 1046
epoch: 1000
next table: 1927
cur table: 1950
epoch: 1000
next table: 1073
cur table: 1160
epoch: 1000
next table: 1981
cur table: 1927
epoch: 1000
next table: 1053
cur table: 1073
epoch: 1000
next table: 1964
cur table: 1981
epoch: 1000
next table: 1048
cur table: 1053
epoch: 1000
next table: 1987
cur table: 1964
epoch: 1000
next table: 1061
cur table: 1048
epoch: 1000
next table: 1997
cur table: 1987
epoch: 1000
next table: 1061
cur table: 1061
epoch: 1000
next table: 1944
cur table: 1997
epoch: 1000
next table: 1058
cur table: 1061
epoch: 1000
next table: 1936
cur table: 1944
epoch: 1000
next table: 1078
cur table: 1058
epoch: 1000
next table: 1953
cur table: 1936
epoch: 1000
next table: 1059
cur table: 1078
epoch: 1000
next table: 1936
cur table: 1953
epoch: 1000
next table: 1067
cur table: 1059
epoch: 1000
next table: 1934
cur table: 1936
epoch: 1000
next table: 1053
cur table: 1067
epoch: 1000
next table: 1946
cur table: 1934
epoch: 1000
next table: 1056
cur table: 1053
epoch: 1000
next table: 1882
cur table: 1946
epoch: 1000
next table: 1063
cur table: 1056
epoch: 1000
next table: 1972
cur table: 1882
epoch: 1000
next table: 1054
cur table: 1063
epoch: 1000
next table: 1955
cur table: 1972
epoch: 1000
next table: 1050
cur table: 1054
epoch: 1000
next table: 1985
cur table: 1955
epoch: 1000
next table: 1062
cur table: 1050
epoch: 1000
next table: 1875
cur table: 1985
epoch: 1000
next table: 1062
cur table: 1062
epoch: 1000
next table: 1906
cur table: 1875
epoch: 1000
next table: 1060
cur table: 1062
epoch: 1000
next table: 1904
cur table: 1906
epoch: 1000
next table: 1067
cur table: 1060
epoch: 1000
next table: 1938
cur table: 1904
epoch: 1000
next table: 1065
cur table: 1067
epoch: 1000
next table: 1905
cur table: 1938
epoch: 1000
next table: 1065
cur table: 1065
epoch: 1000
next table: 1912
cur table: 1905
epoch: 1000
next table: 1058
cur table: 1065
epoch: 1000
next table: 1891
cur table: 1912
epoch: 1000
next table: 1049
cur table: 1058
epoch: 1000
next table: 1966
cur table: 1891
epoch: 1000
next table: 1058
cur table: 1049
epoch: 1000
next table: 1947
cur table: 1966
epoch: 1000
next table: 1043
cur table: 1058
epoch: 1000
next table: 1954
cur table: 1947
epoch: 1000
next table: 1056
cur table: 1043
epoch: 1000
next table: 1942
cur table: 1954
epoch: 1000
next table: 1044
cur table: 1056
epoch: 1000
next table: 1991
cur table: 1942
epoch: 1000
next table: 1049
cur table: 1044
epoch: 1000
next table: 1961
cur table: 1991
epoch: 1000
next table: 1041
cur table: 1049
epoch: 1000
next table: 1942
cur table: 1961
epoch: 1000
next table: 1054
cur table: 1041
epoch: 1000
next table: 1998
cur table: 1942
epoch: 1000
next table: 1045
cur table: 1054
epoch: 1000
next table: 1994
cur table: 1998
epoch: 1000
next table: 1051
cur table: 1045
epoch: 1000
next table: 1968
cur table: 1994
epoch: 1000
next table: 1050
cur table: 1051
epoch: 1000
next table: 1955
cur table: 1968
epoch: 1000
next table: 1090
cur table: 1050
epoch: 1000
next table: 1926
cur table: 1955
epoch: 1000
next table: 1037
cur table: 1090
epoch: 1000
next table: 1904
cur table: 1926
epoch: 1000
next table: 1967
cur table: 1904
epoch: 1000
next table: 1996
cur table: 1967
epoch: 1000
next table: 1129
cur table: 1037
epoch: 1000
next table: 1962
cur table: 1996
epoch: 1000
next table: 1057
cur table: 1129
epoch: 1000
next table: 1929
cur table: 1962
epoch: 1000
next table: 1073
cur table: 1057
epoch: 1000
next table: 1866
cur table: 1929
epoch: 1000
next table: 1058
cur table: 1073
epoch: 1000
next table: 1990
cur table: 1866
epoch: 1000
next table: 1065
cur table: 1058
epoch: 1000
next table: 1989
cur table: 1990
epoch: 1000
next table: 1045
cur table: 1065
epoch: 1000
next table: 2030
cur table: 1989
epoch: 1000
next table: 1050
cur table: 1045
epoch: 1000
next table: 1986
cur table: 2030
epoch: 1000
next table: 1068
cur table: 1050
epoch: 1000
next table: 1989
cur table: 1986
epoch: 1000
next table: 1071
cur table: 1068
epoch: 1000
next table: 1957
cur table: 1989
epoch: 1000
next table: 1056
cur table: 1071
epoch: 1000
next table: 1978
cur table: 1957
epoch: 1000
next table: 1058
cur table: 1056
epoch: 1000
next table: 1916
cur table: 1978
epoch: 1000
next table: 1073
cur table: 1058
epoch: 1000
next table: 1889
cur table: 1916
epoch: 1000
next table: 1053
cur table: 1073
epoch: 1000
next table: 1971
cur table: 1889
epoch: 1000
next table: 1063
cur table: 1053
epoch: 1000
next table: 1993
cur table: 1971
epoch: 1000
next table: 1048
cur table: 1063
epoch: 1000
next table: 1889
cur table: 1993
epoch: 1000
next table: 1045
cur table: 1048
epoch: 1000
next table: 1980
cur table: 1889
epoch: 1000
next table: 1104
cur table: 1045
epoch: 1000
next table: 1923
cur table: 1980
epoch: 1000
next table: 1068
cur table: 1104
epoch: 1000
next table: 1883
cur table: 1923
epoch: 1000
next table: 1088
cur table: 1068
epoch: 1000
next table: 1906
cur table: 1883
epoch: 1000
next table: 1061
cur table: 1088
epoch: 1000
next table: 1931
cur table: 1906
epoch: 1000
next table: 1083
cur table: 1061
epoch: 1000
next table: 1921
cur table: 1931
epoch: 1000
next table: 1884
cur table: 1921
epoch: 1000
next table: 1094
cur table: 1083
epoch: 1000
next table: 2003
cur table: 1884
epoch: 1000
next table: 1050
cur table: 1094
epoch: 1000
next table: 1928
cur table: 2003
epoch: 1000
next table: 1060
cur table: 1050
epoch: 1000
next table: 1944
cur table: 1928
epoch: 1000
next table: 1073
cur table: 1060
epoch: 1000
next table: 1960
cur table: 1944
epoch: 1000
next table: 1068
cur table: 1073
epoch: 1000
next table: 1937
cur table: 1960
epoch: 1000
next table: 1061
cur table: 1068
epoch: 1000
next table: 1884
cur table: 1937
epoch: 1000
next table: 1074
cur table: 1061
epoch: 1000
next table: 1988
cur table: 1884
epoch: 1000
next table: 1039
cur table: 1074
[...]
next table: 1355
cur table: 1417
epoch: 1000
next table: 1973
cur table: 2482
epoch: 1000
next table: 1309
cur table: 1355
epoch: 1000
next table: 2646
cur table: 1973
epoch: 1000
next table: 1116
cur table: 1309
epoch: 1000
next table: 1393
cur table: 2646
epoch: 1000
next table: 1157
cur table: 1116
epoch: 1000
next table: 1926
cur table: 1393
epoch: 1000
next table: 1033
cur table: 1157
epoch: 1000
next table: 3124
cur table: 1926
epoch: 1000
next table: 1664
cur table: 1033
epoch: 1000
next table: 2743
cur table: 3124
epoch: 1000
next table: 1095
cur table: 1664
epoch: 1000
next table: 2589
cur table: 2743
epoch: 1000
next table: 2682
cur table: 2589
epoch: 1000
next table: 1080
cur table: 1095
epoch: 1000
next table: 2897
cur table: 2682
epoch: 1000
next table: 1058
cur table: 1080
epoch: 1000
next table: 2933
cur table: 2897
epoch: 1000
next table: 1077
cur table: 1058
epoch: 1000
next table: 2799
cur table: 2933
epoch: 1000
next table: 1079
cur table: 1077
epoch: 1000
next table: 2892
cur table: 2799
epoch: 1000
next table: 1058
cur table: 1079
epoch: 1000
next table: 2911
cur table: 2892
epoch: 1000
next table: 1052
cur table: 1058
epoch: 1000
next table: 2986
cur table: 2911
epoch: 1000
next table: 1057
cur table: 1052
epoch: 1000
next table: 2965
cur table: 2986
epoch: 1000
next table: 1047
cur table: 1057
epoch: 1000
next table: 2953
cur table: 2965
epoch: 1000
next table: 2924
cur table: 2953
epoch: 1000
next table: 1056
cur table: 1047
epoch: 1000
next table: 2814
cur table: 2924
epoch: 1000
next table: 1064
cur table: 1056
epoch: 1000
next table: 2996
cur table: 2814
epoch: 1000
next table: 1061
cur table: 1064
epoch: 1000
next table: 2770
cur table: 2996
epoch: 1000
next table: 1073
cur table: 1061
epoch: 1000
next table: 2770
cur table: 2770
epoch: 1000
next table: 1051
cur table: 1073
epoch: 1000
next table: 2883
cur table: 2770
epoch: 1000
next table: 1038
cur table: 1051
epoch: 1000
next table: 2964
cur table: 2883
epoch: 1000
next table: 1049
cur table: 1038
epoch: 1000
next table: 2910
cur table: 2964
epoch: 1000
next table: 1033
cur table: 1049
epoch: 1000
next table: 2978
cur table: 2910
epoch: 1000
next table: 1051
cur table: 1033
epoch: 1000
next table: 2859
cur table: 2978
epoch: 1000
next table: 1049
cur table: 1051
epoch: 1000
next table: 2936
cur table: 2859
epoch: 1000
next table: 1072
cur table: 1049
epoch: 1000
next table: 2984
cur table: 2936
epoch: 1000
next table: 1039
cur table: 1072
epoch: 1000
next table: 2901
cur table: 2984
epoch: 1000
next table: 1060
cur table: 1039
epoch: 1000
next table: 2868
cur table: 2901
epoch: 1000
next table: 1043
cur table: 1060
epoch: 1000
next table: 3011
cur table: 2868
epoch: 1000
next table: 1063
cur table: 1043
epoch: 1000
next table: 2780
cur table: 3011
epoch: 1000
next table: 1061
cur table: 1063
epoch: 1000
next table: 2843
cur table: 2780
epoch: 1000
next table: 1064
cur table: 1061
epoch: 1000
next table: 2951
cur table: 2843
epoch: 1000
next table: 1053
cur table: 1064
epoch: 1000
next table: 2756
cur table: 2951
epoch: 1000
next table: 1067
cur table: 1053
epoch: 1000
next table: 2918
cur table: 2756
epoch: 1000
next table: 1058
cur table: 1067
epoch: 1000
next table: 2940
cur table: 2918
epoch: 1000
next table: 1062
cur table: 1058
epoch: 1000
next table: 2898
cur table: 2940
Heartbeat CPU 0 instructions: 100000000 cycles: 147187671 heartbeat IPC: 0.338136 cumulative IPC: 0.381569 (Simulation time: 0 hr 45 min 2 sec) 
Finished CPU 0 instructions: 50000003 cycles: 131037779 cumulative IPC: 0.381569 (Simulation time: 0 hr 45 min 2 sec) 

ChampSim completed all CPUs

Region of Interest Statistics

CPU 0 cumulative IPC: 0.381569 instructions: 50000003 cycles: 131037779
ITLB TOTAL     ACCESS:    7804287  HIT:    7804277  MISS:         10  HIT %:    99.9999  MISS %: 0.000128135   MPKI: 0.0002
ITLB LOAD TRANSLATION ACCESS:    7804287  HIT:    7804277  MISS:         10  HIT %:    99.9999  MISS %: 0.000128135   MPKI: 0.0002
ITLB PREFETCH  REQUESTED:          0  ISSUED:          0  USEFUL:          0  USELESS:          0
ITLB USEFUL LOAD PREFETCHES:          0 PREFETCH ISSUED TO LOWER LEVEL:          0  ACCURACY: -nan
ITLB TIMELY PREFETCHES:          0 LATE PREFETCHES: 0 DROPPED PREFETCHES: 0
ITLB PREFETCHES SAME FILL-ORIGIN LEVEL: 0 DIFFERENT FILL-ORIGIN LEVEL: 0
ITLB AVERAGE MISS LATENCY: 307.4 cycles
ITLB RQ	ACCESS:    8403910	FORWARD:          0	MERGED:     599619	TO_CACHE:    7804291

Revised Interactions: positive negative neutral
ITLB_interactions 0 0 0 -nan -nan -nan
DTLB TOTAL     ACCESS:   14454900  HIT:   14429301  MISS:      25599  HIT %:    99.8229  MISS %:   0.177096   MPKI: 0.51198
DTLB LOAD TRANSLATION ACCESS:   14454900  HIT:   14429301  MISS:      25599  HIT %:    99.8229  MISS %:   0.177096   MPKI: 0.51198
DTLB PREFETCH  REQUESTED:          0  ISSUED:          0  USEFUL:          0  USELESS:          0
DTLB USEFUL LOAD PREFETCHES:          0 PREFETCH ISSUED TO LOWER LEVEL:          0  ACCURACY: -nan
DTLB TIMELY PREFETCHES:          0 LATE PREFETCHES: 0 DROPPED PREFETCHES: 0
DTLB PREFETCHES SAME FILL-ORIGIN LEVEL: 0 DIFFERENT FILL-ORIGIN LEVEL: 0
DTLB AVERAGE MISS LATENCY: 78.9801 cycles
DTLB RQ	ACCESS:   14725117	FORWARD:          0	MERGED:     269842	TO_CACHE:   14455275

Revised Interactions: positive negative neutral
DTLB_interactions 0 0 0 -nan -nan -nan
STLB TOTAL     ACCESS:      25609  HIT:       6691  MISS:      18918  HIT %:    26.1275  MISS %:    73.8725   MPKI: 0.37836
STLB LOAD TRANSLATION ACCESS:      25609  HIT:       6691  MISS:      18918  HIT %:    26.1275  MISS %:    73.8725   MPKI: 0.37836
STLB PREFETCH  REQUESTED:          0  ISSUED:          0  USEFUL:          0  USELESS:          0
STLB USEFUL LOAD PREFETCHES:          0 PREFETCH ISSUED TO LOWER LEVEL:          0  ACCURACY: -nan
STLB TIMELY PREFETCHES:          0 LATE PREFETCHES: 0 DROPPED PREFETCHES: 0
STLB PREFETCHES SAME FILL-ORIGIN LEVEL: 0 DIFFERENT FILL-ORIGIN LEVEL: 0
STLB AVERAGE MISS LATENCY: 94.8444 cycles
STLB RQ	ACCESS:      25609	FORWARD:          0	MERGED:          0	TO_CACHE:      25609

Revised Interactions: positive negative neutral
STLB_interactions 0 0 0 -nan -nan -nan
STLB Hit, L1D data hit: 0
STLB Hit, L2C data hit: 0
STLB Hit, LLC data hit: 0
STLB Hit, LLC data miss: 0
STLB STLB hints to L2: 0
L1D TOTAL     ACCESS:   14642116  HIT:   13710302  MISS:     931814  HIT %:    93.6361  MISS %:    6.36393   MPKI: 18.6363
L1D LOAD      ACCESS:    9856420  HIT:    8927097  MISS:     929323  HIT %:    90.5714  MISS %:    9.42861   MPKI: 18.5865
L1D RFO       ACCESS:    4785696  HIT:    4783205  MISS:       2491  HIT %:    99.9479  MISS %:  0.0520509   MPKI: 0.04982
L1D PREFETCH  REQUESTED:          0  ISSUED:          0  USEFUL:          0  USELESS:          0
L1D USEFUL LOAD PREFETCHES:          0 PREFETCH ISSUED TO LOWER LEVEL:          0  ACCURACY: -nan
L1D TIMELY PREFETCHES:          0 LATE PREFETCHES: 0 DROPPED PREFETCHES: 0
L1D PREFETCHES SAME FILL-ORIGIN LEVEL: 0 DIFFERENT FILL-ORIGIN LEVEL: 0
L1D AVERAGE MISS LATENCY: 20.9812 cycles
L1D RQ	ACCESS:   13240964	FORWARD:          0	MERGED:    3299104	TO_CACHE:    9933443
L1D WQ	ACCESS:    5368851	FORWARD:       8417	MERGED:     577177	TO_CACHE:    4791674

Revised Interactions: positive negative neutral
L1D_interactions 0 0 0 -nan -nan -nan
L1D UNIQUE REGIONS ACCESSED: 0
L1D REGIONS CONFLICTS: 0
L1D Cross Page Prefetch Requests: 0
L1D Same Page Prefetch Requests: 0
L1D ROI Sum of L1D PQ occupancy: 0
L1D PREFETCHES PUSHED FROM L2C: 0
L1I TOTAL     ACCESS:    8403899  HIT:    8403810  MISS:         89  HIT %:    99.9989  MISS %: 0.00105903   MPKI: 0.00178
L1I LOAD      ACCESS:    8403899  HIT:    8403810  MISS:         89  HIT %:    99.9989  MISS %: 0.00105903   MPKI: 0.00178
L1I PREFETCH  REQUESTED:          0  ISSUED:          0  USEFUL:          0  USELESS:          0
L1I USEFUL LOAD PREFETCHES:          0 PREFETCH ISSUED TO LOWER LEVEL:          0  ACCURACY: -nan
L1I TIMELY PREFETCHES:          0 LATE PREFETCHES: 0 DROPPED PREFETCHES: 0
L1I PREFETCHES SAME FILL-ORIGIN LEVEL: 0 DIFFERENT FILL-ORIGIN LEVEL: 0
L1I AVERAGE MISS LATENCY: 199.449 cycles
L1I RQ	ACCESS:   14092674	FORWARD:          0	MERGED:    5688764	TO_CACHE:    8403910

Revised Interactions: positive negative neutral
L1I_interactions 0 0 0 -nan -nan -nan
BTB TOTAL     ACCESS:    9291543  HIT:    9274272  MISS:      17271  HIT %:    99.8141  MISS %:   0.185879   MPKI: 0.34542
BTB BRANCH_DIRECT_JUMP	ACCESS:    1184498  HIT:    1184423  MISS:         75
BTB BRANCH_INDIRECT	ACCESS:          0  HIT:          0  MISS:          0
BTB BRANCH_CONDITIONAL	ACCESS:    6903434  HIT:    6903266  MISS:        168
BTB BRANCH_DIRECT_CALL	ACCESS:     601785  HIT:     601743  MISS:         42
BTB BRANCH_INDIRECT_CALL	ACCESS:         21  HIT:         20  MISS:          1
BTB BRANCH_RETURN	ACCESS:     601805  HIT:     584820  MISS:      16985
BTB BRANCH_OTHER ACCESS:          0  HIT:          0  MISS:          0

L2C TOTAL     ACCESS:    1559122  HIT:     927154  MISS:     631968  HIT %:    59.4664  MISS %:    40.5336   MPKI: 12.6394
L2C LOAD      ACCESS:     929412  HIT:     883585  MISS:      45827  HIT %:    95.0692  MISS %:    4.93075   MPKI: 0.91654
L2C DATA LOAD MPKI: 0.91476
L2C INSTRUCTION LOAD MPKI: 0.00178
L2C RFO       ACCESS:       2491  HIT:        181  MISS:       2310  HIT %:    7.26616  MISS %:    92.7338   MPKI: 0.0462
L2C PREFETCH  ACCESS:     594173  HIT:      19111  MISS:     575062  HIT %:     3.2164  MISS %:    96.7836   MPKI: 11.5012
L2C DATA PREFETCH MPKI: 11.5012
L2C INSTRUCTION PREFETCH MPKI: 0
L2C WRITEBACK ACCESS:      12540  HIT:      12250  MISS:        290  HIT %:    97.6874  MISS %:     2.3126   MPKI: 0.0058
L2C LOAD TRANSLATION ACCESS:      20506  HIT:      12027  MISS:       8479  HIT %:    58.6511  MISS %:    41.3489   MPKI: 0.16958
L2C PREFETCH  REQUESTED:     595999  ISSUED:     595999  USEFUL:     506086  USELESS:      68834
L2C USEFUL LOAD PREFETCHES:     506086 PREFETCH ISSUED TO LOWER LEVEL:     575876  ACCURACY: 87.8811
L2C TIMELY PREFETCHES:     506086 LATE PREFETCHES: 814 DROPPED PREFETCHES: 0
L2C PREFETCHES SAME FILL-ORIGIN LEVEL: 575876 DIFFERENT FILL-ORIGIN LEVEL: 0
L2C AVERAGE MISS LATENCY: 125.061 cycles
L2C RQ	ACCESS:     952409	FORWARD:          0	MERGED:          0	TO_CACHE:     952409
L2C WQ	ACCESS:      12540	FORWARD:          0	MERGED:          0	TO_CACHE:      12540
L2C PQ	ACCESS:     595999	FORWARD:          0	MERGED:          0	TO_CACHE:     595999

Revised Interactions: positive negative neutral
L2C_interactions 503850 70152 8945 86.4315 12.034 1.53444
L2C Instructions Evicting Data 87
L2C Translations Evicting Data 8331
L2C Data Evicting Data 614731
L2C Instructions Evicting Instructions 0
L2C Translations Evicting Instructions 3
L2C Data Evicting Instructions 85
L2C Instructions Evicting Translations 2
L2C Translations Evicting Translations 145
L2C Data Evicting Translations 8294
L2C Dense regions hint from L2: 0
PSCL5 TOTAL     ACCESS:      18918  HIT:      18918  MISS:          0  HIT %:        100  MISS %:          0   MPKI: 0
PSCL5 LOAD TRANSLATION ACCESS:      18918  HIT:      18918  MISS:          0  HIT %:        100  MISS %:          0   MPKI: 0
PSCL5 PREFETCH  REQUESTED:          0  ISSUED:          0  USEFUL:          0  USELESS:          0
PSCL5 USEFUL LOAD PREFETCHES:          0 PREFETCH ISSUED TO LOWER LEVEL:          0  ACCURACY: -nan
PSCL5 TIMELY PREFETCHES:          0 LATE PREFETCHES: 0 DROPPED PREFETCHES: 0
PSCL5 PREFETCHES SAME FILL-ORIGIN LEVEL: 0 DIFFERENT FILL-ORIGIN LEVEL: 0

Revised Interactions: positive negative neutral
PSCL5_interactions 0 0 0 -nan -nan -nan
PSCL4 TOTAL     ACCESS:      18918  HIT:      18918  MISS:          0  HIT %:        100  MISS %:          0   MPKI: 0
PSCL4 LOAD TRANSLATION ACCESS:      18918  HIT:      18918  MISS:          0  HIT %:        100  MISS %:          0   MPKI: 0
PSCL4 PREFETCH  REQUESTED:          0  ISSUED:          0  USEFUL:          0  USELESS:          0
PSCL4 USEFUL LOAD PREFETCHES:          0 PREFETCH ISSUED TO LOWER LEVEL:          0  ACCURACY: -nan
PSCL4 TIMELY PREFETCHES:          0 LATE PREFETCHES: 0 DROPPED PREFETCHES: 0
PSCL4 PREFETCHES SAME FILL-ORIGIN LEVEL: 0 DIFFERENT FILL-ORIGIN LEVEL: 0

Revised Interactions: positive negative neutral
PSCL4_interactions 0 0 0 -nan -nan -nan
PSCL3 TOTAL     ACCESS:      18918  HIT:      18918  MISS:          0  HIT %:        100  MISS %:          0   MPKI: 0
PSCL3 LOAD TRANSLATION ACCESS:      18918  HIT:      18918  MISS:          0  HIT %:        100  MISS %:          0   MPKI: 0
PSCL3 PREFETCH  REQUESTED:          0  ISSUED:          0  USEFUL:          0  USELESS:          0
PSCL3 USEFUL LOAD PREFETCHES:          0 PREFETCH ISSUED TO LOWER LEVEL:          0  ACCURACY: -nan
PSCL3 TIMELY PREFETCHES:          0 LATE PREFETCHES: 0 DROPPED PREFETCHES: 0
PSCL3 PREFETCHES SAME FILL-ORIGIN LEVEL: 0 DIFFERENT FILL-ORIGIN LEVEL: 0

Revised Interactions: positive negative neutral
PSCL3_interactions 0 0 0 -nan -nan -nan
PSCL2 TOTAL     ACCESS:      18918  HIT:      17309  MISS:       1609  HIT %:    91.4949  MISS %:    8.50513   MPKI: 0.03218
PSCL2 LOAD TRANSLATION ACCESS:      18918  HIT:      17309  MISS:       1609  HIT %:    91.4949  MISS %:    8.50513   MPKI: 0.03218
PSCL2 PREFETCH  REQUESTED:          0  ISSUED:          0  USEFUL:          0  USELESS:          0
PSCL2 USEFUL LOAD PREFETCHES:          0 PREFETCH ISSUED TO LOWER LEVEL:          0  ACCURACY: -nan
PSCL2 TIMELY PREFETCHES:          0 LATE PREFETCHES: 0 DROPPED PREFETCHES: 0
PSCL2 PREFETCHES SAME FILL-ORIGIN LEVEL: 0 DIFFERENT FILL-ORIGIN LEVEL: 0

Revised Interactions: positive negative neutral
PSCL2_interactions 0 0 0 -nan -nan -nan
LLC TOTAL     ACCESS:     640086  HIT:      65997  MISS:     574089  HIT %:    10.3106  MISS %:    89.6894   MPKI: 11.4818
LLC LOAD      ACCESS:      45018  HIT:      10126  MISS:      34892  HIT %:    22.4932  MISS %:    77.5068   MPKI: 0.69784
LLC RFO       ACCESS:       2305  HIT:         72  MISS:       2233  HIT %:    3.12364  MISS %:    96.8764   MPKI: 0.04466
LLC PREFETCH  ACCESS:     575876  HIT:      49055  MISS:     526821  HIT %:    8.51833  MISS %:    91.4817   MPKI: 10.5364
LLC WRITEBACK ACCESS:       8408  HIT:       3395  MISS:       5013  HIT %:    40.3782  MISS %:    59.6218   MPKI: 0.10026
LLC LOAD TRANSLATION ACCESS:       8479  HIT:       3349  MISS:       5130  HIT %:    39.4976  MISS %:    60.5024   MPKI: 0.1026
LLC PREFETCH  REQUESTED:          0  ISSUED:          0  USEFUL:        808  USELESS:     534402
LLC USEFUL LOAD PREFETCHES:        808 PREFETCH ISSUED TO LOWER LEVEL:     526821  ACCURACY: 0.153373
LLC TIMELY PREFETCHES:        808 LATE PREFETCHES: 0 DROPPED PREFETCHES: 0
LLC PREFETCHES SAME FILL-ORIGIN LEVEL: 0 DIFFERENT FILL-ORIGIN LEVEL: 0
LLC AVERAGE MISS LATENCY: 104.716 cycles
LLC RQ	ACCESS:      55802	FORWARD:          0	MERGED:          0	TO_CACHE:      55802
LLC WQ	ACCESS:       8408	FORWARD:          0	MERGED:          0	TO_CACHE:       8408
LLC PQ	ACCESS:     575876	FORWARD:          0	MERGED:          0	TO_CACHE:     575876

Revised Interactions: positive negative neutral
LLC_interactions 210 524755 23775 0.0382695 95.6291 4.33265
LLC Dense regions hint to LLC: 0

RAW hits: 25829
Loads Generated: 13266793
Loads sent to L1D: 13240964
Stores Generated: 5368850
Stores sent to L1D: 5368851
Major fault: 0 Minor fault: 8936
Allocated PAGES: 8936
[Bingo] PHT Access: 33937
[Bingo] PHT Hit PC+Addr: 4563
[Bingo] PHT Hit PC+Offs: 26058
[Bingo] PHT Miss: 3316
[Bingo] Prefetch PC+Addr: 0
[Bingo] Prefetch PC+Offs: 0
[Bingo] Useful PC+Addr: 0
[Bingo] Useful PC+Offs: 0
[Bingo] Useless PC+Addr: 0
[Bingo] Useless PC+Offs: 0
[Bingo] L1 Prefetch per Region: 0
[Bingo] L2 Prefetch per Region: 20.5607
[Bingo] L3 Prefetch per Region: 0
[Bingo] No Prefetch per Region: 11.4393
[Bingo] Number of Voters Mean: 13.3359
[Bingo] Number of Voters SD: 12.6731
PHT read accesses: 404620
PHT write accesses: 26101
AT read accesses: 897695
AT write accesses: 915555
FT read accesses: 95045
FT write accesses: 33937
PS read accesses: 79182
PS write accesses: 30621
PHT tag read accesses: 1246484
PHT tag write accesses: 30664
AT tag read accesses: 26172069
AT tag write accesses: 923793
FT tag read accesses: 12323225
FT tag write accesses: 96955
PS tag read accesses: 16074902
PS tag write accesses: 109507

DRAM Statistics
 CHANNEL 0
 RQ ROW_BUFFER_HIT:     510182  ROW_BUFFER_MISS:      58894
 DBUS_CONGESTED:         63
 WQ ROW_BUFFER_HIT:        783  ROW_BUFFER_MISS:       6397  FULL:          0

 AVG_CONGESTED_CYCLE: 3
 All warmup complete: 2
Channel 0 Bank busy for read cycles: 0
Channel 0 Bank busy for write cycles: 0
Channel 0
Rank 0
0banks busy for read cycles: 122065320
0banks busy for write cycles: 3978
1banks busy for read cycles: 3218055
1banks busy for write cycles: 498656
2banks busy for read cycles: 642424
2banks busy for write cycles: 137201
3banks busy for read cycles: 364384
3banks busy for write cycles: 51458
4banks busy for read cycles: 269936
4banks busy for write cycles: 25398
5banks busy for read cycles: 241902
5banks busy for write cycles: 10816
6banks busy for read cycles: 217349
6banks busy for write cycles: 8175
7banks busy for read cycles: 1037274
7banks busy for write cycles: 4744
8banks busy for read cycles: 2236765
8banks busy for write cycles: 3945

CPU 0 Branch Prediction Accuracy: 95.0334% MPKI: 12.0195 Average ROB Occupancy at Mispredict: 57.8352
Branch types
NOT_BRANCH: 37899452 75.7989%
BRANCH_DIRECT_JUMP: 1184498 2.369%
BRANCH_INDIRECT: 0 0%
BRANCH_CONDITIONAL: 9712129 19.4243%
BRANCH_DIRECT_CALL: 601785 1.20357%
BRANCH_INDIRECT_CALL: 21 4.2e-05%
BRANCH_RETURN: 601805 1.20361%
BRANCH_OTHER: 0 0%

@sumon_overall_L1D         0         0         0         0         0         0         0
@Sumon_Early_by_class_L1D         0         0         0         0
@Sumon_Late_by_class_L1D         0         0         0         0

@Sumon_Early_by_cycle_L1D         0         0         0         0         0         0         0         0         0         0         0         0
@Sumon_Late_by_cycle_L1D         0         0         0         0         0         0
@Sumon_Early_stream_L1D         0         0         0         0         0         0         0         0         0         0         0         0
@Sumon_Early_CS_L1D         0         0         0         0         0         0         0         0         0         0         0         0
@Sumon_Early_CPLX_L1D         0         0         0         0         0         0         0         0         0         0         0         0
@Sumon_Late_stream_L1D         0         0         0         0         0         0
@Sumon_Late_CS_L1D         0         0         0         0         0         0
@Sumon_Late_CPLX_L1D         0         0         0         0         0         0
@sumon_overall_L2C    506086       814         0     68834    575062    595999    595999
@Sumon_Early_by_class_L2C         0         0         0         0
@Sumon_Late_by_class_L2C         0         0         0         0

@Sumon_Early_by_cycle_L2C     11127     28158     48356     49400     37631     62289     96902    155884      3189      2005      3480      7665
@Sumon_Late_by_cycle_L2C        48        99       207       278       182         0
@Sumon_Early_stream_L2C         0         0         0         0         0         0         0         0         0         0         0         0
@Sumon_Early_CS_L2C         0         0         0         0         0         0         0         0         0         0         0         0
@Sumon_Early_CPLX_L2C         0         0         0         0         0         0         0         0         0         0         0         0
@Sumon_Late_stream_L2C         0         0         0         0         0         0
@Sumon_Late_CS_L2C         0         0         0         0         0         0
@Sumon_Late_CPLX_L2C         0         0         0         0         0         0
DRAM PAGES: 1048576
Allocated PAGES: 8936
