
*** ChampSim Multicore Out-of-Order Simulator ***

Warmup Instructions: 50000000
Simulation Instructions: 50000000
Number of CPUs: 1
LLC sets: 2048
LLC ways: 16
Off-chip DRAM Size: 4096 MB Channels: 1 Width: 64-bit Data Rate: 6400 MT/s
CPU 0 runs ../../biswa/SPEC2017Traces/603.bwaves_s-2609B.champsimtrace.xz
.xz
CPU 0 Bimodal branch predictor
BTB has LRU replacement policy
ITLB has LRU replacement policy
DTLB has LRU replacement policy
STLB has LRU replacement policy
L1I has LRU replacement policy
L1D has LRU replacement policy
Bingo PHT WAYS: 16 and PHT_SIZE: 16384
Initialize DRRIP state for L2C
Initialize Hawkeye state
epoch: 1000
next table: 2068
cur table: 10440
epoch: 1000
next table: 2084
cur table: 2068
epoch: 1000
next table: 2054
cur table: 2084
epoch: 1000
next table: 2069
cur table: 2054
epoch: 1000
next table: 2048
cur table: 2069
epoch: 1000
next table: 2082
cur table: 2048
epoch: 1000
next table: 2052
cur table: 2082
epoch: 1000
next table: 2067
cur table: 2052
epoch: 1000
next table: 2054
cur table: 2067
epoch: 1000
next table: 2035
cur table: 2054
epoch: 1000
next table: 2081
cur table: 2035
epoch: 1000
next table: 2063
cur table: 2081
epoch: 1000
next table: 1904
cur table: 2063
epoch: 1000
next table: 2161
cur table: 1904
epoch: 1000
next table: 2058
cur table: 2161
epoch: 1000
next table: 1978
cur table: 2058
epoch: 1000
next table: 2054
cur table: 1978
epoch: 1000
next table: 2050
cur table: 2054
epoch: 1000
next table: 2068
cur table: 2050
epoch: 1000
next table: 2067
cur table: 2068
epoch: 1000
next table: 2070
cur table: 2067
epoch: 1000
next table: 2071
cur table: 2070
epoch: 1000
next table: 2040
cur table: 2071
epoch: 1000
next table: 2067
cur table: 2040
epoch: 1000
next table: 2066
cur table: 2067
epoch: 1000
next table: 1210
cur table: 7821
epoch: 1000
next table: 2071
cur table: 2066
epoch: 1000
next table: 1182
cur table: 1210
epoch: 1000
next table: 2052
cur table: 2071
epoch: 1000
next table: 1147
cur table: 1182
epoch: 1000
next table: 2055
cur table: 2052
epoch: 1000
next table: 1164
cur table: 1147
epoch: 1000
next table: 2063
cur table: 2055
epoch: 1000
next table: 1185
cur table: 1164
epoch: 1000
next table: 2086
cur table: 2063
epoch: 1000
next table: 1145
cur table: 1185
epoch: 1000
next table: 2061
cur table: 2086
epoch: 1000
next table: 1163
cur table: 1145
epoch: 1000
next table: 2055
cur table: 2061
epoch: 1000
next table: 1160
cur table: 1163
epoch: 1000
next table: 2050
cur table: 2055
epoch: 1000
next table: 1160
cur table: 1160
epoch: 1000
next table: 2065
cur table: 2050
epoch: 1000
next table: 1177
cur table: 1160
epoch: 1000
next table: 2071
cur table: 2065
epoch: 1000
next table: 1157
cur table: 1177
epoch: 1000
next table: 2055
cur table: 2071
epoch: 1000
next table: 1137
cur table: 1157
epoch: 1000
next table: 2064
cur table: 2055
epoch: 1000
next table: 1141
cur table: 1137
epoch: 1000
next table: 2068
cur table: 2064
epoch: 1000
next table: 1190
cur table: 1141
epoch: 1000
next table: 2063
cur table: 2068
epoch: 1000
next table: 1137
cur table: 1190
epoch: 1000
next table: 2072
cur table: 2063
epoch: 1000
next table: 1174
cur table: 1137
epoch: 1000
next table: 2070
cur table: 2072
epoch: 1000
next table: 1151
cur table: 1174
epoch: 1000
next table: 2057
cur table: 2070
epoch: 1000
next table: 1179
cur table: 1151
epoch: 1000
next table: 2052
cur table: 2057
epoch: 1000
next table: 1138
cur table: 1179
epoch: 1000
next table: 2042
cur table: 2052
epoch: 1000
next table: 1159
cur table: 1138
epoch: 1000
next table: 2008
cur table: 2042
epoch: 1000
next table: 1158
cur table: 1159
epoch: 1000
next table: 2159
cur table: 2008
epoch: 1000
next table: 1150
cur table: 1158
epoch: 1000
next table: 1913
cur table: 2159
epoch: 1000
next table: 1164
cur table: 1150
epoch: 1000
next table: 2072
cur table: 1913
epoch: 1000
next table: 1164
cur table: 1164
epoch: 1000
next table: 2062
cur table: 2072
epoch: 1000
next table: 1166
cur table: 1164
epoch: 1000
next table: 2057
cur table: 2062
epoch: 1000
next table: 1149
cur table: 1166
epoch: 1000
next table: 2067
cur table: 2057
epoch: 1000
next table: 1167
cur table: 1149
epoch: 1000
next table: 2055
cur table: 2067
epoch: 1000
next table: 1155
cur table: 1167
epoch: 1000
next table: 2068
cur table: 2055
epoch: 1000
next table: 1153
cur table: 1155
epoch: 1000
next table: 2055
cur table: 2068
epoch: 1000
next table: 1148
cur table: 1153
epoch: 1000
next table: 2059
cur table: 2055
epoch: 1000
next table: 1146
cur table: 1148
epoch: 1000
next table: 2085
cur table: 2059
epoch: 1000
next table: 1150
cur table: 1146
epoch: 1000
next table: 2043
cur table: 2085
epoch: 1000
next table: 1160
cur table: 1150
epoch: 1000
next table: 2076
cur table: 2043
epoch: 1000
next table: 1177
cur table: 1160
epoch: 1000
next table: 2068
cur table: 2076
epoch: 1000
next table: 1167
cur table: 1177
epoch: 1000
next table: 2058
cur table: 2068
epoch: 1000
next table: 1163
cur table: 1167
epoch: 1000
next table: 2052
cur table: 2058
epoch: 1000
next table: 1173
cur table: 1163
epoch: 1000
next table: 2055
cur table: 2052
epoch: 1000
next table: 1160
cur table: 1173
epoch: 1000
next table: 2068
cur table: 2055
epoch: 1000
next table: 1161
cur table: 1160
epoch: 1000
next table: 2053
cur table: 2068
epoch: 1000
next table: 1149
cur table: 1161
epoch: 1000
next table: 2072
cur table: 2053
epoch: 1000
next table: 1169
cur table: 1149
epoch: 1000
next table: 2053
cur table: 2072
epoch: 1000
next table: 1165
cur table: 1169
epoch: 1000
next table: 2070
cur table: 2053
epoch: 1000
next table: 1163
cur table: 1165
epoch: 1000
next table: 2061
cur table: 2070
epoch: 1000
next table: 1174
cur table: 1163
epoch: 1000
next table: 2062
cur table: 2061
epoch: 1000
next table: 1139
cur table: 1174
epoch: 1000
next table: 2073
cur table: 2062
epoch: 1000
next table: 1161
cur table: 1139
epoch: 1000
next table: 2057
cur table: 2073
epoch: 1000
next table: 1165
cur table: 1161
epoch: 1000
next table: 2054
cur table: 2057
epoch: 1000
next table: 1170
cur table: 1165
epoch: 1000
next table: 2064
cur table: 2054
epoch: 1000
next table: 1169
cur table: 1170
epoch: 1000
next table: 2080
cur table: 2064
epoch: 1000
next table: 1156
cur table: 1169
epoch: 1000
next table: 2053
cur table: 2080
epoch: 1000
next table: 1155
cur table: 1156
epoch: 1000
next table: 2072
cur table: 2053
epoch: 1000
next table: 1172
cur table: 1155
epoch: 1000
next table: 2027
cur table: 2072
epoch: 1000
next table: 1179
cur table: 1172
epoch: 1000
next table: 2043
cur table: 2027
epoch: 1000
next table: 1148
cur table: 1179
epoch: 1000
next table: 2097
cur table: 2043
epoch: 1000
next table: 1159
cur table: 1148
epoch: 1000
next table: 2040
cur table: 2097
epoch: 1000
next table: 1159
cur table: 1159
epoch: 1000
next table: 1918
cur table: 2040
epoch: 1000
next table: 2056
cur table: 1918
epoch: 1000
next table: 1159
cur table: 1159
epoch: 1000
next table: 2076
cur table: 2056
epoch: 1000
next table: 1177
cur table: 1159
epoch: 1000
next table: 2073
cur table: 2076
epoch: 1000
next table: 1161
cur table: 1177
epoch: 1000
next table: 2049
cur table: 2073
epoch: 1000
next table: 1153
cur table: 1161
epoch: 1000
next table: 2050
cur table: 2049
epoch: 1000
next table: 1151
cur table: 1153
epoch: 1000
next table: 2074
cur table: 2050
epoch: 1000
next table: 1157
cur table: 1151
epoch: 1000
next table: 2068
cur table: 2074
epoch: 1000
next table: 1152
cur table: 1157
epoch: 1000
next table: 2063
cur table: 2068
epoch: 1000
next table: 1164
cur table: 1152
epoch: 1000
next table: 2066
cur table: 2063
epoch: 1000
next table: 1186
cur table: 1164
epoch: 1000
next table: 2043
cur table: 2066
epoch: 1000
next table: 1138
cur table: 1186
epoch: 1000
next table: 2075
cur table: 2043
epoch: 1000
next table: 1168
cur table: 1138
epoch: 1000
next table: 2083
cur table: 2075
epoch: 1000
next table: 1159
cur table: 1168
epoch: 1000
next table: 2061
cur table: 2083
epoch: 1000
next table: 1152
cur table: 1159
epoch: 1000
next table: 2053
cur table: 2061
epoch: 1000
next table: 1163
cur table: 1152
epoch: 1000
next table: 2050
cur table: 2053
epoch: 1000
next table: 1139
cur table: 1163
epoch: 1000
next table: 2057
cur table: 2050
epoch: 1000
next table: 1156
cur table: 1139
epoch: 1000
next table: 2082
cur table: 2057
epoch: 1000
next table: 1164
cur table: 1156
epoch: 1000
next table: 2057
cur table: 2082
epoch: 1000
next table: 1170
cur table: 1164
epoch: 1000
next table: 2060
cur table: 2057
epoch: 1000
next table: 1165
cur table: 1170
epoch: 1000
next table: 2064
cur table: 2060
epoch: 1000
next table: 1158
cur table: 1165
epoch: 1000
next table: 2059
cur table: 2064
epoch: 1000
next table: 1147
cur table: 1158
epoch: 1000
next table: 2085
cur table: 2059
epoch: 1000
next table: 1165
cur table: 1147
epoch: 1000
next table: 2055
cur table: 2085
epoch: 1000
next table: 1197
cur table: 1165
epoch: 1000
next table: 2064
cur table: 2055
epoch: 1000
next table: 1169
cur table: 1197
epoch: 1000
next table: 2051
cur table: 2064
epoch: 1000
next table: 1147
cur table: 1169
epoch: 1000
next table: 2068
cur table: 2051
epoch: 1000
next table: 1152
cur table: 1147
epoch: 1000
next table: 2064
cur table: 2068
epoch: 1000
next table: 1175
cur table: 1152
epoch: 1000
next table: 2065
cur table: 2064
epoch: 1000
next table: 1161
cur table: 1175
epoch: 1000
next table: 2071
cur table: 2065
epoch: 1000
next table: 1181
cur table: 1161
epoch: 1000
next table: 2040
cur table: 2071
epoch: 1000
next table: 1154
cur table: 1181
epoch: 1000
next table: 2077
cur table: 2040
epoch: 1000
next table: 1156
cur table: 1154
epoch: 1000
next table: 2069
cur table: 2077
epoch: 1000
next table: 1169
cur table: 1156
epoch: 1000
next table: 2065
cur table: 2069
epoch: 1000
next table: 1155
cur table: 1169
epoch: 1000
next table: 2063
cur table: 2065
epoch: 1000
next table: 1162
cur table: 1155
epoch: 1000
next table: 2020
cur table: 2063
epoch: 1000
next table: 1154
cur table: 1162
epoch: 1000
next table: 2049
cur table: 2020
epoch: 1000
next table: 1154
cur table: 1154
epoch: 1000
next table: 1969
cur table: 2049
epoch: 1000
next table: 1183
cur table: 1154
epoch: 1000
next table: 2066
cur table: 1969
epoch: 1000
next table: 1175
cur table: 1183
epoch: 1000
next table: 2048
cur table: 2066
epoch: 1000
next table: 1174
cur table: 1175
epoch: 1000
next table: 2077
cur table: 2048
epoch: 1000
next table: 1151
cur table: 1174
epoch: 1000
next table: 2067
cur table: 2077
epoch: 1000
next table: 1171
cur table: 1151
epoch: 1000
next table: 2051
cur table: 2067
epoch: 1000
next table: 1157
cur table: 1171
epoch: 1000
next table: 2068
cur table: 2051
epoch: 1000
next table: 1170
cur table: 1157
epoch: 1000
next table: 2054
cur table: 2068
epoch: 1000
next table: 1142
cur table: 1170
epoch: 1000
next table: 2063
cur table: 2054
epoch: 1000
next table: 1164
cur table: 1142
epoch: 1000
next table: 2068
cur table: 2063
epoch: 1000
next table: 1169
cur table: 1164
epoch: 1000
next table: 2073
cur table: 2068
epoch: 1000
next table: 1184
cur table: 1169
epoch: 1000
next table: 2064
cur table: 2073
epoch: 1000
next table: 1178
cur table: 1184
epoch: 1000
next table: 2049
cur table: 2064
epoch: 1000
next table: 1177
cur table: 1178
epoch: 1000
next table: 2069
cur table: 2049
epoch: 1000
next table: 1132
cur table: 1177
epoch: 1000
next table: 2062
cur table: 2069
epoch: 1000
next table: 1124
cur table: 1132
epoch: 1000
next table: 2067
cur table: 2062
epoch: 1000
next table: 1161
cur table: 1124
epoch: 1000
next table: 2061
cur table: 2067
epoch: 1000
next table: 1180
cur table: 1161
epoch: 1000
next table: 2044
cur table: 2061
epoch: 1000
next table: 1169
cur table: 1180
epoch: 1000
next table: 2068
cur table: 2044
epoch: 1000
next table: 1164
cur table: 1169
epoch: 1000
next table: 2083
cur table: 2068
epoch: 1000
next table: 1156
cur table: 1164
epoch: 1000
next table: 2061
cur table: 2083
epoch: 1000
next table: 1166
cur table: 1156
epoch: 1000
next table: 2061
cur table: 2061
epoch: 1000
next table: 1154
cur table: 1166
epoch: 1000
next table: 2049
cur table: 2061
epoch: 1000
next table: 1145
cur table: 1154
epoch: 1000
next table: 2061
cur table: 2049
epoch: 1000
next table: 1168
cur table: 1145
epoch: 1000
next table: 2075
cur table: 2061
epoch: 1000
next table: 1152
cur table: 1168
epoch: 1000
next table: 2057
cur table: 2075
epoch: 1000
next table: 1164
cur table: 1152
epoch: 1000
next table: 2068
cur table: 2057
epoch: 1000
next table: 1174
cur table: 1164
epoch: 1000
next table: 2051
cur table: 2068
epoch: 1000
next table: 1152
cur table: 1174
epoch: 1000
next table: 2067
cur table: 2051
epoch: 1000
next table: 1157
cur table: 1152
epoch: 1000
next table: 2067
cur table: 2067
epoch: 1000
next table: 1161
cur table: 1157
epoch: 1000
next table: 2068
cur table: 2067
epoch: 1000
next table: 1165
cur table: 1161
epoch: 1000
next table: 2053
cur table: 2068
epoch: 1000
next table: 1164
cur table: 1165
epoch: 1000
next table: 2016
cur table: 2053
epoch: 1000
next table: 1162
cur table: 1164
epoch: 1000
next table: 2075
cur table: 2016
epoch: 1000
next table: 1170
cur table: 1162
epoch: 1000
next table: 2101
cur table: 2075
epoch: 1000
next table: 1170
cur table: 1170
epoch: 1000
next table: 2080
cur table: 2101
epoch: 1000
next table: 1171
cur table: 1170
epoch: 1000
next table: 1913
cur table: 2080
epoch: 1000
next table: 1188
cur table: 1171
epoch: 1000
next table: 2060
cur table: 1913
epoch: 1000
next table: 1171
cur table: 1188
epoch: 1000
next table: 2059
cur table: 2060
epoch: 1000
next table: 1164
cur table: 1171
epoch: 1000
next table: 2055
cur table: 2059
epoch: 1000
next table: 1147
cur table: 1164
epoch: 1000
next table: 2045
cur table: 2055
epoch: 1000
next table: 1152
cur table: 1147
epoch: 1000
next table: 2066
cur table: 2045
epoch: 1000
next table: 1152
cur table: 1152
epoch: 1000
next table: 2064
cur table: 2066
epoch: 1000
next table: 1168
cur table: 1152
epoch: 1000
next table: 2064
cur table: 2064
epoch: 1000
next table: 1137
cur table: 1168
epoch: 1000
next table: 2043
cur table: 2064
epoch: 1000
next table: 1140
cur table: 1137
epoch: 1000
next table: 2077
cur table: 2043
epoch: 1000
next table: 1155
cur table: 1140
epoch: 1000
next table: 2062
cur table: 2077
epoch: 1000
next table: 1172
cur table: 1155
epoch: 1000
next table: 2071
cur table: 2062
epoch: 1000
next table: 1159
cur table: 1172
epoch: 1000
next table: 2055
cur table: 2071
epoch: 1000
next table: 1158
cur table: 1159
epoch: 1000
next table: 2057
cur table: 2055
epoch: 1000
next table: 1166
cur table: 1158
epoch: 1000
next table: 2056
cur table: 2057
epoch: 1000
next table: 1172
cur table: 1166
epoch: 1000
next table: 2070
cur table: 2056
epoch: 1000
next table: 1165
cur table: 1172
epoch: 1000
next table: 2059
cur table: 2070
epoch: 1000
next table: 1165
cur table: 1165
epoch: 1000
next table: 2073
cur table: 2059
epoch: 1000
next table: 1146
cur table: 1165
epoch: 1000
next table: 2062
cur table: 2073
epoch: 1000
next table: 1164
cur table: 1146
epoch: 1000
next table: 2068
cur table: 2062
epoch: 1000
next table: 1154
cur table: 1164
epoch: 1000
next table: 2061
cur table: 2068
epoch: 1000
next table: 1168
cur table: 1154
epoch: 1000
next table: 2061
cur table: 2061
epoch: 1000
next table: 1177
cur table: 1168
epoch: 1000
next table: 2071
cur table: 2061
epoch: 1000
next table: 1154
cur table: 1177
epoch: 1000
next table: 2054
cur table: 2071
epoch: 1000
next table: 1158
cur table: 1154
epoch: 1000
next table: 2068
cur table: 2054
epoch: 1000
next table: 1163
cur table: 1158
epoch: 1000
next table: 2057
cur table: 2068
epoch: 1000
next table: 1166
cur table: 1163
epoch: 1000
next table: 2062
cur table: 2057
epoch: 1000
next table: 1162
cur table: 1166
epoch: 1000
next table: 2078
cur table: 2062
epoch: 1000
next table: 1182
cur table: 1162
epoch: 1000
next table: 2061
cur table: 2078
epoch: 1000
next table: 1165
cur table: 1182
Heartbeat CPU 0 instructions: 10000001 cycles: 3311863 heartbeat IPC: 3.01945 cumulative IPC: 3.01945 (Simulation time: 0 hr 5 min 27 sec) 
epoch: 1000
next table: 2060
cur table: 2061
epoch: 1000
next table: 1174
cur table: 1165
epoch: 1000
next table: 2054
cur table: 2060
epoch: 1000
next table: 1160
cur table: 1174
epoch: 1000
next table: 2033
cur table: 2054
epoch: 1000
next table: 1166
cur table: 1160
epoch: 1000
next table: 2103
cur table: 2033
epoch: 1000
next table: 1171
cur table: 1166
epoch: 1000
next table: 2063
cur table: 2103
epoch: 1000
next table: 1144
cur table: 1171
epoch: 1000
next table: 1897
cur table: 2063
epoch: 1000
next table: 1141
cur table: 1144
epoch: 1000
next table: 2075
cur table: 1897
epoch: 1000
next table: 1155
cur table: 1141
epoch: 1000
next table: 2074
cur table: 2075
epoch: 1000
next table: 1158
cur table: 1155
epoch: 1000
next table: 2065
cur table: 2074
epoch: 1000
next table: 1141
cur table: 1158
epoch: 1000
next table: 2060
cur table: 2065
epoch: 1000
next table: 1168
cur table: 1141
epoch: 1000
next table: 2049
cur table: 2060
epoch: 1000
next table: 1174
cur table: 1168
epoch: 1000
next table: 2049
cur table: 2049
epoch: 1000
next table: 1144
cur table: 1174
epoch: 1000
next table: 2081
cur table: 2049
epoch: 1000
next table: 1158
cur table: 1144
epoch: 1000
next table: 2070
cur table: 2081
epoch: 1000
next table: 1165
cur table: 1158
epoch: 1000
next table: 2041
cur table: 2070
epoch: 1000
next table: 1142
cur table: 1165
epoch: 1000
next table: 2044
cur table: 2041
epoch: 1000
next table: 1162
cur table: 1142
epoch: 1000
next table: 2093
cur table: 2044
epoch: 1000
next table: 1163
cur table: 1162
epoch: 1000
next table: 2068
cur table: 2093
epoch: 1000
next table: 1159
cur table: 1163
epoch: 1000
next table: 2062
cur table: 2068
epoch: 1000
next table: 1172
cur table: 1159
epoch: 1000
next table: 2054
cur table: 2062
epoch: 1000
next table: 1157
cur table: 1172
epoch: 1000
next table: 2057
cur table: 2054
epoch: 1000
next table: 1168
cur table: 1157
epoch: 1000
next table: 2068
cur table: 2057
epoch: 1000
next table: 1177
cur table: 1168
epoch: 1000
next table: 2062
cur table: 2068
epoch: 1000
next table: 1161
cur table: 1177
epoch: 1000
next table: 2070
cur table: 2062
epoch: 1000
next table: 1144
cur table: 1161
epoch: 1000
next table: 2046
cur table: 2070
epoch: 1000
next table: 1154
cur table: 1144
epoch: 1000
next table: 2066
cur table: 2046
epoch: 1000
next table: 1161
cur table: 1154
epoch: 1000
next table: 2066
cur table: 2066
epoch: 1000
next table: 1139
cur table: 1161
epoch: 1000
next table: 2080
cur table: 2066
epoch: 1000
next table: 1182
cur table: 1139
epoch: 1000
next table: 2053
cur table: 2080
epoch: 1000
next table: 1140
cur table: 1182
epoch: 1000
next table: 2061
cur table: 2053
epoch: 1000
next table: 1180
cur table: 1140
epoch: 1000
next table: 2052
cur table: 2061
epoch: 1000
next table: 1129
cur table: 1180
epoch: 1000
next table: 2070
cur table: 2052
epoch: 1000
next table: 1166
cur table: 1129
epoch: 1000
next table: 2069
cur table: 2070
epoch: 1000
next table: 1162
cur table: 1166
epoch: 1000
next table: 2068
cur table: 2069
epoch: 1000
next table: 1162
cur table: 1162
epoch: 1000
next table: 2068
cur table: 2068
epoch: 1000
next table: 1164
cur table: 1162
epoch: 1000
next table: 2048
cur table: 2068
epoch: 1000
next table: 1164
cur table: 1164
epoch: 1000
next table: 2077
cur table: 2048
epoch: 1000
next table: 1164
cur table: 1164
epoch: 1000
next table: 2061
cur table: 2077
epoch: 1000
next table: 1145
cur table: 1164
epoch: 1000
next table: 2071
cur table: 2061
epoch: 1000
next table: 1162
cur table: 1145
epoch: 1000
next table: 2053
cur table: 2071
epoch: 1000
next table: 1156
cur table: 1162
epoch: 1000
next table: 2012
cur table: 2053
epoch: 1000
next table: 1134
cur table: 1156
epoch: 1000
next table: 2078
cur table: 2012
epoch: 1000
next table: 1159
cur table: 1134
epoch: 1000
next table: 2039
cur table: 2078
epoch: 1000
next table: 1141
cur table: 1159
epoch: 1000
next table: 2125
cur table: 2039
epoch: 1000
next table: 1155
cur table: 1141
epoch: 1000
next table: 1917
cur table: 2125
epoch: 1000
next table: 1157
cur table: 1155
epoch: 1000
next table: 2145
cur table: 1917
epoch: 1000
next table: 1170
cur table: 1157
epoch: 1000
next table: 2063
cur table: 2145
epoch: 1000
next table: 1173
cur table: 1170
epoch: 1000
next table: 1998
cur table: 2063
epoch: 1000
next table: 1152
cur table: 1173
epoch: 1000
next table: 2105
cur table: 1998
epoch: 1000
next table: 1152
cur table: 1152
epoch: 1000
next table: 1993
cur table: 2105
epoch: 1000
next table: 1154
cur table: 1152
epoch: 1000
next table: 2067
cur table: 1993
epoch: 1000
next table: 1160
cur table: 1154
epoch: 1000
next table: 2076
cur table: 2067
epoch: 1000
next table: 1144
cur table: 1160
epoch: 1000
next table: 2069
cur table: 2076
epoch: 1000
next table: 1154
cur table: 1144
epoch: 1000
next table: 2061
cur table: 2069
epoch: 1000
next table: 1159
cur table: 1154
epoch: 1000
next table: 2049
cur table: 2061
epoch: 1000
next table: 1158
cur table: 1159
epoch: 1000
next table: 2063
cur table: 2049
epoch: 1000
next table: 1165
cur table: 1158
epoch: 1000
next table: 2054
cur table: 2063
epoch: 1000
next table: 1147
cur table: 1165
epoch: 1000
next table: 2070
cur table: 2054
epoch: 1000
next table: 1175
cur table: 1147
epoch: 1000
next table: 2068
cur table: 2070
epoch: 1000
next table: 1160
cur table: 1175
epoch: 1000
next table: 2040
cur table: 2068
epoch: 1000
next table: 1187
cur table: 1160
epoch: 1000
next table: 2069
cur table: 2040
epoch: 1000
next table: 1170
cur table: 1187
epoch: 1000
next table: 2097
cur table: 2069
epoch: 1000
next table: 1145
cur table: 1170
epoch: 1000
next table: 2056
cur table: 2097
epoch: 1000
next table: 1162
cur table: 1145
epoch: 1000
next table: 2053
cur table: 2056
epoch: 1000
next table: 1171
cur table: 1162
epoch: 1000
next table: 2037
cur table: 2053
epoch: 1000
next table: 1173
cur table: 1171
epoch: 1000
next table: 2068
cur table: 2037
epoch: 1000
next table: 1153
cur table: 1173
epoch: 1000
next table: 2082
cur table: 2068
epoch: 1000
next table: 1156
cur table: 1153
epoch: 1000
next table: 2049
cur table: 2082
epoch: 1000
next table: 1164
cur table: 1156
epoch: 1000
next table: 2068
cur table: 2049
epoch: 1000
next table: 1146
cur table: 1164
epoch: 1000
next table: 2056
cur table: 2068
epoch: 1000
next table: 1187
cur table: 1146
epoch: 1000
next table: 2074
cur table: 2056
epoch: 1000
next table: 1158
cur table: 1187
epoch: 1000
next table: 2069
cur table: 2074
epoch: 1000
next table: 1148
cur table: 1158
epoch: 1000
next table: 2061
cur table: 2069
epoch: 1000
next table: 1152
cur table: 1148
epoch: 1000
next table: 2052
cur table: 2061
epoch: 1000
next table: 1147
cur table: 1152
epoch: 1000
next table: 2058
cur table: 2052
epoch: 1000
next table: 1145
cur table: 1147
epoch: 1000
next table: 2074
cur table: 2058
epoch: 1000
next table: 1167
cur table: 1145
epoch: 1000
next table: 2064
cur table: 2074
epoch: 1000
next table: 1169
cur table: 1167
epoch: 1000
next table: 2067
cur table: 2064
epoch: 1000
next table: 1142
cur table: 1169
epoch: 1000
next table: 2060
cur table: 2067
epoch: 1000
next table: 2051
cur table: 2060
epoch: 1000
next table: 1159
cur table: 1142
epoch: 1000
next table: 2073
cur table: 2051
epoch: 1000
next table: 1158
cur table: 1159
epoch: 1000
next table: 2068
cur table: 2073
epoch: 1000
next table: 1149
cur table: 1158
epoch: 1000
next table: 2071
cur table: 2068
epoch: 1000
next table: 1172
cur table: 1149
epoch: 1000
next table: 1902
cur table: 2071
epoch: 1000
next table: 1132
cur table: 1172
epoch: 1000
next table: 2066
cur table: 1902
epoch: 1000
next table: 1158
cur table: 1132
epoch: 1000
next table: 2153
cur table: 2066
epoch: 1000
next table: 1155
cur table: 1158
epoch: 1000
next table: 1972
cur table: 2153
epoch: 1000
next table: 1157
cur table: 1155
epoch: 1000
next table: 2073
cur table: 1972
epoch: 1000
next table: 1169
cur table: 1157
epoch: 1000
next table: 2063
cur table: 2073
epoch: 1000
next table: 1152
cur table: 1169
epoch: 1000
next table: 2062
cur table: 2063
epoch: 1000
next table: 1158
cur table: 1152
epoch: 1000
next table: 2073
cur table: 2062
epoch: 1000
next table: 1176
cur table: 1158
epoch: 1000
next table: 2052
cur table: 2073
epoch: 1000
next table: 1187
cur table: 1176
epoch: 1000
next table: 2053
cur table: 2052
epoch: 1000
next table: 1178
cur table: 1187
epoch: 1000
next table: 2049
cur table: 2053
epoch: 1000
next table: 1156
cur table: 1178
epoch: 1000
next table: 2069
cur table: 2049
epoch: 1000
next table: 1147
cur table: 1156
epoch: 1000
next table: 2066
cur table: 2069
epoch: 1000
next table: 1164
cur table: 1147
epoch: 1000
next table: 2076
cur table: 2066
epoch: 1000
next table: 1155
cur table: 1164
epoch: 1000
next table: 2069
cur table: 2076
epoch: 1000
next table: 1187
cur table: 1155
epoch: 1000
next table: 2034
cur table: 2069
epoch: 1000
next table: 1165
cur table: 1187
epoch: 1000
next table: 2070
cur table: 2034
epoch: 1000
next table: 1153
cur table: 1165
epoch: 1000
next table: 2070
cur table: 2070
epoch: 1000
next table: 1158
cur table: 1153
epoch: 1000
next table: 2054
cur table: 2070
epoch: 1000
next table: 1143
cur table: 1158
epoch: 1000
next table: 2077
cur table: 2054
epoch: 1000
next table: 1147
cur table: 1143
epoch: 1000
next table: 2045
cur table: 2077
epoch: 1000
next table: 1159
cur table: 1147
epoch: 1000
next table: 2063
cur table: 2045
epoch: 1000
next table: 1161
cur table: 1159
epoch: 1000
next table: 2085
cur table: 2063
epoch: 1000
next table: 1166
cur table: 1161
epoch: 1000
next table: 2056
cur table: 2085
epoch: 1000
next table: 1166
cur table: 1166
epoch: 1000
next table: 2074
cur table: 2056
epoch: 1000
next table: 1174
cur table: 1166
epoch: 1000
next table: 2036
cur table: 2074
epoch: 1000
next table: 1150
cur table: 1174
epoch: 1000
next table: 2067
cur table: 2036
epoch: 1000
next table: 1156
cur table: 1150
epoch: 1000
next table: 2069
cur table: 2067
epoch: 1000
next table: 1168
cur table: 1156
epoch: 1000
next table: 2068
cur table: 2069
epoch: 1000
next table: 1165
cur table: 1168
epoch: 1000
next table: 2053
cur table: 2068
epoch: 1000
next table: 1138
cur table: 1165
epoch: 1000
next table: 2062
cur table: 2053
epoch: 1000
next table: 1172
cur table: 1138
epoch: 1000
next table: 2069
cur table: 2062
epoch: 1000
next table: 1160
cur table: 1172
epoch: 1000
next table: 2062
cur table: 2069
epoch: 1000
next table: 1184
cur table: 1160
epoch: 1000
next table: 2070
cur table: 2062
epoch: 1000
next table: 1169
cur table: 1184
epoch: 1000
next table: 2006
cur table: 2070
epoch: 1000
next table: 1167
cur table: 1169
epoch: 1000
next table: 2069
cur table: 2006
epoch: 1000
next table: 1154
cur table: 1167
epoch: 1000
next table: 2074
cur table: 2069
epoch: 1000
next table: 1120
cur table: 1154
epoch: 1000
next table: 1958
cur table: 2074
epoch: 1000
next table: 1148
cur table: 1120
epoch: 1000
next table: 2218
cur table: 1958
epoch: 1000
next table: 1183
cur table: 1148
epoch: 1000
next table: 1887
cur table: 2218
epoch: 1000
next table: 1161
cur table: 1183
epoch: 1000
next table: 2083
cur table: 1887
epoch: 1000
next table: 1174
cur table: 1161
epoch: 1000
next table: 2061
cur table: 2083
epoch: 1000
next table: 1188
cur table: 1174
epoch: 1000
next table: 2054
cur table: 2061
epoch: 1000
next table: 1169
cur table: 1188
epoch: 1000
next table: 2067
cur table: 2054
epoch: 1000
next table: 1152
cur table: 1169
epoch: 1000
next table: 2032
cur table: 2067
epoch: 1000
next table: 1142
cur table: 1152
epoch: 1000
next table: 2073
cur table: 2032
epoch: 1000
next table: 1165
cur table: 1142
epoch: 1000
next table: 2078
cur table: 2073
epoch: 1000
next table: 1156
cur table: 1165
epoch: 1000
next table: 2046
cur table: 2078
epoch: 1000
next table: 1161
cur table: 1156
epoch: 1000
next table: 2071
cur table: 2046
epoch: 1000
next table: 1165
cur table: 1161
epoch: 1000
next table: 2062
cur table: 2071
epoch: 1000
next table: 1145
cur table: 1165
epoch: 1000
next table: 2073
cur table: 2062
epoch: 1000
next table: 1152
cur table: 1145
epoch: 1000
next table: 2063
cur table: 2073
epoch: 1000
next table: 1157
cur table: 1152
epoch: 1000
next table: 2068
cur table: 2063
epoch: 1000
next table: 1160
cur table: 1157
epoch: 1000
next table: 2054
cur table: 2068
epoch: 1000
next table: 1174
cur table: 1160
epoch: 1000
next table: 2050
cur table: 2054
epoch: 1000
next table: 1152
cur table: 1174
epoch: 1000
next table: 2066
cur table: 2050
epoch: 1000
next table: 1157
cur table: 1152
epoch: 1000
next table: 2066
cur table: 2066
epoch: 1000
next table: 1172
cur table: 1157
epoch: 1000
next table: 2072
cur table: 2066
epoch: 1000
next table: 1169
cur table: 1172
epoch: 1000
next table: 2073
cur table: 2072
epoch: 1000
next table: 1174
cur table: 1169
epoch: 1000
next table: 2053
cur table: 2073
epoch: 1000
next table: 1170
cur table: 1174
epoch: 1000
next table: 2062
cur table: 2053
epoch: 1000
next table: 1161
cur table: 1170
epoch: 1000
next table: 2070
cur table: 2062
epoch: 1000
next table: 1147
cur table: 1161
epoch: 1000
next table: 2062
cur table: 2070
epoch: 1000
next table: 1167
cur table: 1147
epoch: 1000
next table: 2067
cur table: 2062
epoch: 1000
next table: 1160
cur table: 1167
epoch: 1000
next table: 2050
cur table: 2067
epoch: 1000
next table: 1182
cur table: 1160
epoch: 1000
next table: 2059
cur table: 2050
epoch: 1000
next table: 1139
cur table: 1182
epoch: 1000
next table: 2072
cur table: 2059
epoch: 1000
next table: 1139
cur table: 1139
epoch: 1000
next table: 2066
cur table: 2072
epoch: 1000
next table: 1163
cur table: 1139
epoch: 1000
next table: 2069
cur table: 2066
epoch: 1000
next table: 1164
cur table: 1163
epoch: 1000
next table: 2056
cur table: 2069
epoch: 1000
next table: 1159
cur table: 1164
epoch: 1000
next table: 2062
cur table: 2056
epoch: 1000
next table: 1138
cur table: 1159
epoch: 1000
next table: 2062
cur table: 2062
epoch: 1000
next table: 1161
cur table: 1138
epoch: 1000
next table: 2067
cur table: 2062
epoch: 1000
next table: 1167
cur table: 1161
epoch: 1000
next table: 2064
cur table: 2067
epoch: 1000
next table: 1180
cur table: 1167
epoch: 1000
next table: 2059
cur table: 2064
epoch: 1000
next table: 1170
cur table: 1180
epoch: 1000
next table: 2066
cur table: 2059
epoch: 1000
next table: 1147
cur table: 1170
epoch: 1000
next table: 2073
cur table: 2066
epoch: 1000
next table: 1156
cur table: 1147
epoch: 1000
next table: 2061
cur table: 2073
epoch: 1000
next table: 1161
cur table: 1156
epoch: 1000
next table: 1917
cur table: 2061
epoch: 1000
next table: 1156
cur table: 1161
epoch: 1000
next table: 2063
cur table: 1917
epoch: 1000
next table: 1185
cur table: 1156
epoch: 1000
next table: 2124
cur table: 2063
epoch: 1000
next table: 1155
cur table: 1185
epoch: 1000
next table: 1994
cur table: 2124
epoch: 1000
next table: 1153
cur table: 1155
epoch: 1000
next table: 2066
cur table: 1994
epoch: 1000
next table: 1178
cur table: 1153
epoch: 1000
next table: 2043
cur table: 2066
epoch: 1000
next table: 1174
cur table: 1178
epoch: 1000
next table: 2071
cur table: 2043
epoch: 1000
next table: 1173
cur table: 1174
epoch: 1000
next table: 2081
cur table: 2071
epoch: 1000
next table: 1192
cur table: 1173
epoch: 1000
next table: 2059
cur table: 2081
epoch: 1000
next table: 1169
cur table: 1192
epoch: 1000
next table: 2057
cur table: 2059
epoch: 1000
next table: 1171
cur table: 1169
epoch: 1000
next table: 2043
cur table: 2057
epoch: 1000
next table: 1170
cur table: 1171
epoch: 1000
next table: 2074
cur table: 2043
epoch: 1000
next table: 1176
cur table: 1170
epoch: 1000
next table: 2063
cur table: 2074
epoch: 1000
next table: 1183
cur table: 1176
epoch: 1000
next table: 2071
cur table: 2063
epoch: 1000
next table: 1154
cur table: 1183
epoch: 1000
next table: 2053
cur table: 2071
epoch: 1000
next table: 2054
cur table: 2053
epoch: 1000
next table: 1151
cur table: 1154
epoch: 1000
next table: 2075
cur table: 2054
epoch: 1000
next table: 1158
cur table: 1151
epoch: 1000
next table: 2068
cur table: 2075
epoch: 1000
next table: 1157
cur table: 1158
epoch: 1000
next table: 2056
cur table: 2068
epoch: 1000
next table: 1168
cur table: 1157
epoch: 1000
next table: 2050
cur table: 2056
epoch: 1000
next table: 1169
cur table: 1168
epoch: 1000
next table: 2059
cur table: 2050
epoch: 1000
next table: 1162
cur table: 1169
epoch: 1000
next table: 2009
cur table: 2059
epoch: 1000
next table: 1166
cur table: 1162
epoch: 1000
next table: 2005
cur table: 2009
epoch: 1000
next table: 1181
cur table: 1166
epoch: 1000
next table: 2168
cur table: 2005
epoch: 1000
next table: 1179
cur table: 1181
epoch: 1000
next table: 1921
cur table: 2168
epoch: 1000
next table: 1181
cur table: 1179
epoch: 1000
next table: 2157
cur table: 1921
epoch: 1000
next table: 1166
cur table: 1181
epoch: 1000
next table: 2045
cur table: 2157
epoch: 1000
next table: 1152
cur table: 1166
epoch: 1000
next table: 1979
cur table: 2045
epoch: 1000
next table: 1154
cur table: 1152
epoch: 1000
next table: 2068
cur table: 1979
epoch: 1000
next table: 1163
cur table: 1154
epoch: 1000
next table: 2056
cur table: 2068
epoch: 1000
next table: 1174
cur table: 1163
epoch: 1000
next table: 2040
cur table: 2056
Heartbeat CPU 0 instructions: 20000003 cycles: 6623693 heartbeat IPC: 3.01948 cumulative IPC: 3.01946 (Simulation time: 0 hr 10 min 7 sec) 
epoch: 1000
next table: 1156
cur table: 1174
epoch: 1000
next table: 2084
cur table: 2040
epoch: 1000
next table: 1154
cur table: 1156
epoch: 1000
next table: 2067
cur table: 2084
epoch: 1000
next table: 1171
cur table: 1154
epoch: 1000
next table: 2056
cur table: 2067
epoch: 1000
next table: 1167
cur table: 1171
epoch: 1000
next table: 2058
cur table: 2056
epoch: 1000
next table: 1175
cur table: 1167
epoch: 1000
next table: 2079
cur table: 2058
epoch: 1000
next table: 1166
cur table: 1175
epoch: 1000
next table: 2048
cur table: 2079
epoch: 1000
next table: 1161
cur table: 1166
epoch: 1000
next table: 2063
cur table: 2048
epoch: 1000
next table: 1173
cur table: 1161
epoch: 1000
next table: 2047
cur table: 2063
epoch: 1000
next table: 1153
cur table: 1173
epoch: 1000
next table: 2062
cur table: 2047
epoch: 1000
next table: 1143
cur table: 1153
epoch: 1000
next table: 2063
cur table: 2062
epoch: 1000
next table: 1159
cur table: 1143
epoch: 1000
next table: 2061
cur table: 2063
epoch: 1000
next table: 1135
cur table: 1159
epoch: 1000
next table: 2069
cur table: 2061
epoch: 1000
next table: 1148
cur table: 1135
epoch: 1000
next table: 2071
cur table: 2069
epoch: 1000
next table: 1175
cur table: 1148
epoch: 1000
next table: 2054
cur table: 2071
epoch: 1000
next table: 1166
cur table: 1175
epoch: 1000
next table: 2076
cur table: 2054
epoch: 1000
next table: 1169
cur table: 1166
epoch: 1000
next table: 2051
cur table: 2076
epoch: 1000
next table: 1164
cur table: 1169
epoch: 1000
next table: 2068
cur table: 2051
epoch: 1000
next table: 1132
cur table: 1164
epoch: 1000
next table: 2065
cur table: 2068
epoch: 1000
next table: 1164
cur table: 1132
epoch: 1000
next table: 2049
cur table: 2065
epoch: 1000
next table: 1183
cur table: 1164
epoch: 1000
next table: 2061
cur table: 2049
epoch: 1000
next table: 1174
cur table: 1183
epoch: 1000
next table: 1946
cur table: 2061
epoch: 1000
next table: 1145
cur table: 1174
epoch: 1000
next table: 2036
cur table: 1946
epoch: 1000
next table: 1152
cur table: 1145
epoch: 1000
next table: 2065
cur table: 2036
epoch: 1000
next table: 1155
cur table: 1152
epoch: 1000
next table: 2056
cur table: 2065
epoch: 1000
next table: 1170
cur table: 1155
epoch: 1000
next table: 2075
cur table: 2056
epoch: 1000
next table: 1175
cur table: 1170
epoch: 1000
next table: 2055
cur table: 2075
epoch: 1000
next table: 1136
cur table: 1175
epoch: 1000
next table: 2049
cur table: 2055
epoch: 1000
next table: 1169
cur table: 1136
epoch: 1000
next table: 2051
cur table: 2049
epoch: 1000
next table: 1153
cur table: 1169
epoch: 1000
next table: 2066
cur table: 2051
epoch: 1000
next table: 1166
cur table: 1153
epoch: 1000
next table: 2074
cur table: 2066
epoch: 1000
next table: 1163
cur table: 1166
epoch: 1000
next table: 2066
cur table: 2074
epoch: 1000
next table: 1167
cur table: 1163
epoch: 1000
next table: 2057
cur table: 2066
epoch: 1000
next table: 1156
cur table: 1167
epoch: 1000
next table: 2037
cur table: 2057
epoch: 1000
next table: 1155
cur table: 1156
epoch: 1000
next table: 2074
cur table: 2037
epoch: 1000
next table: 1168
cur table: 1155
epoch: 1000
next table: 2055
cur table: 2074
epoch: 1000
next table: 1165
cur table: 1168
epoch: 1000
next table: 2071
cur table: 2055
epoch: 1000
next table: 1148
cur table: 1165
epoch: 1000
next table: 2059
cur table: 2071
epoch: 1000
next table: 1162
cur table: 1148
epoch: 1000
next table: 2050
cur table: 2059
epoch: 1000
next table: 1162
cur table: 1162
epoch: 1000
next table: 2075
cur table: 2050
epoch: 1000
next table: 2066
cur table: 2075
epoch: 1000
next table: 1180
cur table: 1162
epoch: 1000
next table: 2060
cur table: 2066
epoch: 1000
next table: 1163
cur table: 1180
epoch: 1000
next table: 2061
cur table: 2060
epoch: 1000
next table: 1170
cur table: 1163
epoch: 1000
next table: 2052
cur table: 2061
epoch: 1000
next table: 1154
cur table: 1170
epoch: 1000
next table: 2062
cur table: 2052
epoch: 1000
next table: 1177
cur table: 1154
epoch: 1000
next table: 2066
cur table: 2062
epoch: 1000
next table: 1186
cur table: 1177
epoch: 1000
next table: 2058
cur table: 2066
epoch: 1000
next table: 1163
cur table: 1186
epoch: 1000
next table: 1899
cur table: 2058
epoch: 1000
next table: 1158
cur table: 1163
epoch: 1000
next table: 2060
cur table: 1899
epoch: 1000
next table: 1135
cur table: 1158
epoch: 1000
next table: 2085
cur table: 2060
epoch: 1000
next table: 1162
cur table: 1135
epoch: 1000
next table: 2068
cur table: 2085
epoch: 1000
next table: 1170
cur table: 1162
epoch: 1000
next table: 2053
cur table: 2068
epoch: 1000
next table: 1175
cur table: 1170
epoch: 1000
next table: 2040
cur table: 2053
epoch: 1000
next table: 1157
cur table: 1175
epoch: 1000
next table: 2063
cur table: 2040
epoch: 1000
next table: 1157
cur table: 1157
epoch: 1000
next table: 2061
cur table: 2063
epoch: 1000
next table: 1147
cur table: 1157
epoch: 1000
next table: 2057
cur table: 2061
epoch: 1000
next table: 1188
cur table: 1147
epoch: 1000
next table: 2053
cur table: 2057
epoch: 1000
next table: 1158
cur table: 1188
epoch: 1000
next table: 2065
cur table: 2053
epoch: 1000
next table: 1156
cur table: 1158
epoch: 1000
next table: 2047
cur table: 2065
epoch: 1000
next table: 1145
cur table: 1156
epoch: 1000
next table: 2083
cur table: 2047
epoch: 1000
next table: 1159
cur table: 1145
epoch: 1000
next table: 2071
cur table: 2083
epoch: 1000
next table: 1159
cur table: 1159
epoch: 1000
next table: 2046
cur table: 2071
epoch: 1000
next table: 1153
cur table: 1159
epoch: 1000
next table: 2059
cur table: 2046
epoch: 1000
next table: 1162
cur table: 1153
epoch: 1000
next table: 2064
cur table: 2059
epoch: 1000
next table: 1152
cur table: 1162
epoch: 1000
next table: 2070
cur table: 2064
epoch: 1000
next table: 1148
cur table: 1152
epoch: 1000
next table: 2061
cur table: 2070
epoch: 1000
next table: 1168
cur table: 1148
epoch: 1000
next table: 2057
cur table: 2061
epoch: 1000
next table: 1153
cur table: 1168
epoch: 1000
next table: 2057
cur table: 2057
epoch: 1000
next table: 1166
cur table: 1153
epoch: 1000
next table: 1996
cur table: 2057
epoch: 1000
next table: 1176
cur table: 1166
epoch: 1000
next table: 2008
cur table: 1996
epoch: 1000
next table: 1186
cur table: 1176
epoch: 1000
next table: 2046
cur table: 2008
epoch: 1000
next table: 1178
cur table: 1186
epoch: 1000
next table: 2052
cur table: 2046
epoch: 1000
next table: 1161
cur table: 1178
epoch: 1000
next table: 2066
cur table: 2052
epoch: 1000
next table: 1183
cur table: 1161
epoch: 1000
next table: 2055
cur table: 2066
epoch: 1000
next table: 1156
cur table: 1183
epoch: 1000
next table: 2056
cur table: 2055
epoch: 1000
next table: 1152
cur table: 1156
epoch: 1000
next table: 2060
cur table: 2056
epoch: 1000
next table: 1153
cur table: 1152
epoch: 1000
next table: 2043
cur table: 2060
epoch: 1000
next table: 1140
cur table: 1153
epoch: 1000
next table: 2083
cur table: 2043
epoch: 1000
next table: 1170
cur table: 1140
epoch: 1000
next table: 2058
cur table: 2083
epoch: 1000
next table: 1151
cur table: 1170
epoch: 1000
next table: 2073
cur table: 2058
epoch: 1000
next table: 1164
cur table: 1151
epoch: 1000
next table: 2059
cur table: 2073
epoch: 1000
next table: 1168
cur table: 1164
epoch: 1000
next table: 2050
cur table: 2059
epoch: 1000
next table: 1161
cur table: 1168
epoch: 1000
next table: 2071
cur table: 2050
epoch: 1000
next table: 1174
cur table: 1161
epoch: 1000
next table: 2050
cur table: 2071
epoch: 1000
next table: 1158
cur table: 1174
epoch: 1000
next table: 2067
cur table: 2050
epoch: 1000
next table: 1160
cur table: 1158
epoch: 1000
next table: 2058
cur table: 2067
epoch: 1000
next table: 1160
cur table: 1160
epoch: 1000
next table: 2053
cur table: 2058
epoch: 1000
next table: 1144
cur table: 1160
epoch: 1000
next table: 2072
cur table: 2053
epoch: 1000
next table: 1157
cur table: 1144
epoch: 1000
next table: 2062
cur table: 2072
epoch: 1000
next table: 1175
cur table: 1157
epoch: 1000
next table: 2069
cur table: 2062
epoch: 1000
next table: 1161
cur table: 1175
epoch: 1000
next table: 2054
cur table: 2069
epoch: 1000
next table: 1146
cur table: 1161
epoch: 1000
next table: 2046
cur table: 2054
epoch: 1000
next table: 1177
cur table: 1146
epoch: 1000
next table: 2058
cur table: 2046
epoch: 1000
next table: 1153
cur table: 1177
epoch: 1000
next table: 1943
cur table: 2058
epoch: 1000
next table: 1153
cur table: 1153
epoch: 1000
next table: 2086
cur table: 1943
epoch: 1000
next table: 1157
cur table: 1153
epoch: 1000
next table: 2017
cur table: 2086
epoch: 1000
next table: 1167
cur table: 1157
epoch: 1000
next table: 2069
cur table: 2017
epoch: 1000
next table: 1182
cur table: 1167
epoch: 1000
next table: 2066
cur table: 2069
epoch: 1000
next table: 1203
cur table: 1182
epoch: 1000
next table: 2049
cur table: 2066
epoch: 1000
next table: 1166
cur table: 1203
epoch: 1000
next table: 2050
cur table: 2049
epoch: 1000
next table: 1139
cur table: 1166
epoch: 1000
next table: 2070
cur table: 2050
epoch: 1000
next table: 1169
cur table: 1139
epoch: 1000
next table: 2045
cur table: 2070
epoch: 1000
next table: 1163
cur table: 1169
epoch: 1000
next table: 2080
cur table: 2045
epoch: 1000
next table: 1169
cur table: 1163
epoch: 1000
next table: 2053
cur table: 2080
epoch: 1000
next table: 1148
cur table: 1169
epoch: 1000
next table: 2056
cur table: 2053
epoch: 1000
next table: 1155
cur table: 1148
epoch: 1000
next table: 2068
cur table: 2056
epoch: 1000
next table: 1161
cur table: 1155
epoch: 1000
next table: 2082
cur table: 2068
epoch: 1000
next table: 1177
cur table: 1161
epoch: 1000
next table: 2060
cur table: 2082
epoch: 1000
next table: 1160
cur table: 1177
epoch: 1000
next table: 2041
cur table: 2060
epoch: 1000
next table: 1184
cur table: 1160
epoch: 1000
next table: 2046
cur table: 2041
epoch: 1000
next table: 1164
cur table: 1184
epoch: 1000
next table: 2011
cur table: 2046
epoch: 1000
next table: 1159
cur table: 1164
epoch: 1000
next table: 2045
cur table: 2011
epoch: 1000
next table: 1148
cur table: 1159
epoch: 1000
next table: 1979
cur table: 2045
epoch: 1000
next table: 1182
cur table: 1148
epoch: 1000
next table: 2039
cur table: 1979
epoch: 1000
next table: 1168
cur table: 1182
epoch: 1000
next table: 2060
cur table: 2039
epoch: 1000
next table: 1164
cur table: 1168
epoch: 1000
next table: 2080
cur table: 2060
epoch: 1000
next table: 1168
cur table: 1164
epoch: 1000
next table: 2084
cur table: 2080
epoch: 1000
next table: 1161
cur table: 1168
epoch: 1000
next table: 2059
cur table: 2084
epoch: 1000
next table: 1162
cur table: 1161
epoch: 1000
next table: 2046
cur table: 2059
epoch: 1000
next table: 1155
cur table: 1162
epoch: 1000
next table: 2051
cur table: 2046
epoch: 1000
next table: 1160
cur table: 1155
epoch: 1000
next table: 2067
cur table: 2051
epoch: 1000
next table: 1184
cur table: 1160
epoch: 1000
next table: 2064
cur table: 2067
epoch: 1000
next table: 1156
cur table: 1184
epoch: 1000
next table: 2060
cur table: 2064
epoch: 1000
next table: 1160
cur table: 1156
epoch: 1000
next table: 2040
cur table: 2060
epoch: 1000
next table: 1137
cur table: 1160
epoch: 1000
next table: 2076
cur table: 2040
epoch: 1000
next table: 1154
cur table: 1137
epoch: 1000
next table: 2063
cur table: 2076
epoch: 1000
next table: 1165
cur table: 1154
epoch: 1000
next table: 2073
cur table: 2063
epoch: 1000
next table: 1170
cur table: 1165
epoch: 1000
next table: 2060
cur table: 2073
epoch: 1000
next table: 1165
cur table: 1170
epoch: 1000
next table: 2058
cur table: 2060
epoch: 1000
next table: 1178
cur table: 1165
epoch: 1000
next table: 2043
cur table: 2058
epoch: 1000
next table: 1153
cur table: 1178
epoch: 1000
next table: 2075
cur table: 2043
epoch: 1000
next table: 1167
cur table: 1153
epoch: 1000
next table: 2061
cur table: 2075
epoch: 1000
next table: 1155
cur table: 1167
epoch: 1000
next table: 2073
cur table: 2061
epoch: 1000
next table: 1152
cur table: 1155
epoch: 1000
next table: 2064
cur table: 2073
epoch: 1000
next table: 1166
cur table: 1152
epoch: 1000
next table: 2054
cur table: 2064
epoch: 1000
next table: 1160
cur table: 1166
epoch: 1000
next table: 2068
cur table: 2054
epoch: 1000
next table: 1168
cur table: 1160
epoch: 1000
next table: 2060
cur table: 2068
epoch: 1000
next table: 1151
cur table: 1168
epoch: 1000
next table: 2078
cur table: 2060
epoch: 1000
next table: 1155
cur table: 1151
epoch: 1000
next table: 1904
cur table: 2078
epoch: 1000
next table: 1149
cur table: 1155
epoch: 1000
next table: 2049
cur table: 1904
epoch: 1000
next table: 1155
cur table: 1149
epoch: 1000
next table: 2071
cur table: 2049
epoch: 1000
next table: 1136
cur table: 1155
epoch: 1000
next table: 2051
cur table: 2071
epoch: 1000
next table: 1146
cur table: 1136
epoch: 1000
next table: 2092
cur table: 2051
epoch: 1000
next table: 1162
cur table: 1146
epoch: 1000
next table: 2047
cur table: 2092
epoch: 1000
next table: 1168
cur table: 1162
epoch: 1000
next table: 2042
cur table: 2047
epoch: 1000
next table: 1149
cur table: 1168
epoch: 1000
next table: 2071
cur table: 2042
epoch: 1000
next table: 1167
cur table: 1149
epoch: 1000
next table: 2052
cur table: 2071
epoch: 1000
next table: 1151
cur table: 1167
epoch: 1000
next table: 2059
cur table: 2052
epoch: 1000
next table: 1145
cur table: 1151
epoch: 1000
next table: 2060
cur table: 2059
epoch: 1000
next table: 1163
cur table: 1145
epoch: 1000
next table: 2060
cur table: 2060
epoch: 1000
next table: 1161
cur table: 1163
epoch: 1000
next table: 2065
cur table: 2060
epoch: 1000
next table: 1150
cur table: 1161
epoch: 1000
next table: 2066
cur table: 2065
epoch: 1000
next table: 1155
cur table: 1150
epoch: 1000
next table: 2070
cur table: 2066
epoch: 1000
next table: 1183
cur table: 1155
epoch: 1000
next table: 2063
cur table: 2070
epoch: 1000
next table: 1173
cur table: 1183
epoch: 1000
next table: 2054
cur table: 2063
epoch: 1000
next table: 1163
cur table: 1173
epoch: 1000
next table: 2061
cur table: 2054
epoch: 1000
next table: 2063
cur table: 2061
epoch: 1000
next table: 1152
cur table: 1163
epoch: 1000
next table: 2061
cur table: 2063
epoch: 1000
next table: 1166
cur table: 1152
epoch: 1000
next table: 2057
cur table: 2061
epoch: 1000
next table: 1159
cur table: 1166
epoch: 1000
next table: 2065
cur table: 2057
epoch: 1000
next table: 1152
cur table: 1159
epoch: 1000
next table: 2065
cur table: 2065
epoch: 1000
next table: 1174
cur table: 1152
epoch: 1000
next table: 2060
cur table: 2065
epoch: 1000
next table: 1151
cur table: 1174
epoch: 1000
next table: 2071
cur table: 2060
epoch: 1000
next table: 1154
cur table: 1151
epoch: 1000
next table: 2040
cur table: 2071
epoch: 1000
next table: 1160
cur table: 1154
epoch: 1000
next table: 2047
cur table: 2040
epoch: 1000
next table: 1162
cur table: 1160
epoch: 1000
next table: 1956
cur table: 2047
epoch: 1000
next table: 1183
cur table: 1162
epoch: 1000
next table: 2039
cur table: 1956
epoch: 1000
next table: 1149
cur table: 1183
epoch: 1000
next table: 2061
cur table: 2039
epoch: 1000
next table: 1144
cur table: 1149
epoch: 1000
next table: 2068
cur table: 2061
epoch: 1000
next table: 1145
cur table: 1144
epoch: 1000
next table: 2079
cur table: 2068
epoch: 1000
next table: 1167
cur table: 1145
epoch: 1000
next table: 2060
cur table: 2079
epoch: 1000
next table: 1169
cur table: 1167
epoch: 1000
next table: 2054
cur table: 2060
epoch: 1000
next table: 1146
cur table: 1169
epoch: 1000
next table: 2062
cur table: 2054
epoch: 1000
next table: 1161
cur table: 1146
epoch: 1000
next table: 2056
cur table: 2062
epoch: 1000
next table: 1164
cur table: 1161
epoch: 1000
next table: 2081
cur table: 2056
epoch: 1000
next table: 1138
cur table: 1164
epoch: 1000
next table: 2062
cur table: 2081
epoch: 1000
next table: 1161
cur table: 1138
epoch: 1000
next table: 2053
cur table: 2062
epoch: 1000
next table: 1162
cur table: 1161
epoch: 1000
next table: 2044
cur table: 2053
epoch: 1000
next table: 1171
cur table: 1162
epoch: 1000
next table: 2089
cur table: 2044
epoch: 1000
next table: 1162
cur table: 1171
epoch: 1000
next table: 2071
cur table: 2089
epoch: 1000
next table: 1170
cur table: 1162
epoch: 1000
next table: 2061
cur table: 2071
epoch: 1000
next table: 1150
cur table: 1170
epoch: 1000
next table: 2048
cur table: 2061
epoch: 1000
next table: 1154
cur table: 1150
epoch: 1000
next table: 2061
cur table: 2048
epoch: 1000
next table: 1142
cur table: 1154
epoch: 1000
next table: 2068
cur table: 2061
epoch: 1000
next table: 1157
cur table: 1142
epoch: 1000
next table: 2065
cur table: 2068
epoch: 1000
next table: 1163
cur table: 1157
epoch: 1000
next table: 2067
cur table: 2065
epoch: 1000
next table: 1177
cur table: 1163
epoch: 1000
next table: 2046
cur table: 2067
epoch: 1000
next table: 1166
cur table: 1177
epoch: 1000
next table: 2064
cur table: 2046
epoch: 1000
next table: 1148
cur table: 1166
epoch: 1000
next table: 2058
cur table: 2064
epoch: 1000
next table: 1138
cur table: 1148
epoch: 1000
next table: 2076
cur table: 2058
epoch: 1000
next table: 1165
cur table: 1138
epoch: 1000
next table: 2066
cur table: 2076
epoch: 1000
next table: 1199
cur table: 1165
epoch: 1000
next table: 2051
cur table: 2066
epoch: 1000
next table: 1178
cur table: 1199
epoch: 1000
next table: 2052
cur table: 2051
epoch: 1000
next table: 1150
cur table: 1178
Heartbeat CPU 0 instructions: 30000001 cycles: 9936297 heartbeat IPC: 3.01877 cumulative IPC: 3.01923 (Simulation time: 0 hr 15 min 34 sec) 
epoch: 1000
next table: 2072
cur table: 2052
epoch: 1000
next table: 1166
cur table: 1150
epoch: 1000
next table: 2062
cur table: 2072
epoch: 1000
next table: 1152
cur table: 1166
epoch: 1000
next table: 2068
cur table: 2062
epoch: 1000
next table: 1170
cur table: 1152
epoch: 1000
next table: 2061
cur table: 2068
epoch: 1000
next table: 1186
cur table: 1170
epoch: 1000
next table: 2016
cur table: 2061
epoch: 1000
next table: 1149
cur table: 1186
epoch: 1000
next table: 2077
cur table: 2016
epoch: 1000
next table: 1154
cur table: 1149
epoch: 1000
next table: 1938
cur table: 2077
epoch: 1000
next table: 1155
cur table: 1154
epoch: 1000
next table: 2068
cur table: 1938
epoch: 1000
next table: 1153
cur table: 1155
epoch: 1000
next table: 2054
cur table: 2068
epoch: 1000
next table: 1162
cur table: 1153
epoch: 1000
next table: 2059
cur table: 2054
epoch: 1000
next table: 1159
cur table: 1162
epoch: 1000
next table: 2059
cur table: 2059
epoch: 1000
next table: 1162
cur table: 1159
epoch: 1000
next table: 2068
cur table: 2059
epoch: 1000
next table: 1166
cur table: 1162
epoch: 1000
next table: 2070
cur table: 2068
epoch: 1000
next table: 1167
cur table: 1166
epoch: 1000
next table: 2036
cur table: 2070
epoch: 1000
next table: 1176
cur table: 1167
epoch: 1000
next table: 2080
cur table: 2036
epoch: 1000
next table: 1151
cur table: 1176
epoch: 1000
next table: 2062
cur table: 2080
epoch: 1000
next table: 1152
cur table: 1151
epoch: 1000
next table: 2063
cur table: 2062
epoch: 1000
next table: 1189
cur table: 1152
epoch: 1000
next table: 2059
cur table: 2063
epoch: 1000
next table: 1167
cur table: 1189
epoch: 1000
next table: 2049
cur table: 2059
epoch: 1000
next table: 1149
cur table: 1167
epoch: 1000
next table: 2071
cur table: 2049
epoch: 1000
next table: 1156
cur table: 1149
epoch: 1000
next table: 2067
cur table: 2071
epoch: 1000
next table: 1145
cur table: 1156
epoch: 1000
next table: 2067
cur table: 2067
epoch: 1000
next table: 1168
cur table: 1145
epoch: 1000
next table: 2058
cur table: 2067
epoch: 1000
next table: 1176
cur table: 1168
epoch: 1000
next table: 2064
cur table: 2058
epoch: 1000
next table: 1154
cur table: 1176
epoch: 1000
next table: 2052
cur table: 2064
epoch: 1000
next table: 1168
cur table: 1154
epoch: 1000
next table: 2069
cur table: 2052
epoch: 1000
next table: 1133
cur table: 1168
epoch: 1000
next table: 2072
cur table: 2069
epoch: 1000
next table: 1164
cur table: 1133
epoch: 1000
next table: 2054
cur table: 2072
epoch: 1000
next table: 1166
cur table: 1164
epoch: 1000
next table: 2050
cur table: 2054
epoch: 1000
next table: 1171
cur table: 1166
epoch: 1000
next table: 2068
cur table: 2050
epoch: 1000
next table: 1154
cur table: 1171
epoch: 1000
next table: 2078
cur table: 2068
epoch: 1000
next table: 1152
cur table: 1154
epoch: 1000
next table: 2054
cur table: 2078
epoch: 1000
next table: 1146
cur table: 1152
epoch: 1000
next table: 2073
cur table: 2054
epoch: 1000
next table: 1170
cur table: 1146
epoch: 1000
next table: 2045
cur table: 2073
epoch: 1000
next table: 1166
cur table: 1170
epoch: 1000
next table: 2047
cur table: 2045
epoch: 1000
next table: 1168
cur table: 1166
epoch: 1000
next table: 2096
cur table: 2047
epoch: 1000
next table: 1157
cur table: 1168
epoch: 1000
next table: 2062
cur table: 2096
epoch: 1000
next table: 1159
cur table: 1157
epoch: 1000
next table: 1901
cur table: 2062
epoch: 1000
next table: 1164
cur table: 1159
epoch: 1000
next table: 2069
cur table: 1901
epoch: 1000
next table: 1145
cur table: 1164
epoch: 1000
next table: 2051
cur table: 2069
epoch: 1000
next table: 1175
cur table: 1145
epoch: 1000
next table: 2095
cur table: 2051
epoch: 1000
next table: 1151
cur table: 1175
epoch: 1000
next table: 2053
cur table: 2095
epoch: 1000
next table: 1164
cur table: 1151
epoch: 1000
next table: 2052
cur table: 2053
epoch: 1000
next table: 1168
cur table: 1164
epoch: 1000
next table: 2058
cur table: 2052
epoch: 1000
next table: 1150
cur table: 1168
epoch: 1000
next table: 2065
cur table: 2058
epoch: 1000
next table: 1142
cur table: 1150
epoch: 1000
next table: 2078
cur table: 2065
epoch: 1000
next table: 1169
cur table: 1142
epoch: 1000
next table: 2047
cur table: 2078
epoch: 1000
next table: 1161
cur table: 1169
epoch: 1000
next table: 2048
cur table: 2047
epoch: 1000
next table: 1168
cur table: 1161
epoch: 1000
next table: 2092
cur table: 2048
epoch: 1000
next table: 1153
cur table: 1168
epoch: 1000
next table: 2059
cur table: 2092
epoch: 1000
next table: 1164
cur table: 1153
epoch: 1000
next table: 2057
cur table: 2059
epoch: 1000
next table: 1147
cur table: 1164
epoch: 1000
next table: 2060
cur table: 2057
epoch: 1000
next table: 1152
cur table: 1147
epoch: 1000
next table: 2054
cur table: 2060
epoch: 1000
next table: 1167
cur table: 1152
epoch: 1000
next table: 2060
cur table: 2054
epoch: 1000
next table: 1151
cur table: 1167
epoch: 1000
next table: 2065
cur table: 2060
epoch: 1000
next table: 1158
cur table: 1151
epoch: 1000
next table: 2058
cur table: 2065
epoch: 1000
next table: 1137
cur table: 1158
epoch: 1000
next table: 2060
cur table: 2058
epoch: 1000
next table: 1171
cur table: 1137
epoch: 1000
next table: 2057
cur table: 2060
epoch: 1000
next table: 1163
cur table: 1171
epoch: 1000
next table: 2066
cur table: 2057
epoch: 1000
next table: 1151
cur table: 1163
epoch: 1000
next table: 2082
cur table: 2066
epoch: 1000
next table: 1168
cur table: 1151
epoch: 1000
next table: 2055
cur table: 2082
epoch: 1000
next table: 1159
cur table: 1168
epoch: 1000
next table: 2059
cur table: 2055
epoch: 1000
next table: 1171
cur table: 1159
epoch: 1000
next table: 2038
cur table: 2059
epoch: 1000
next table: 1160
cur table: 1171
epoch: 1000
next table: 2089
cur table: 2038
epoch: 1000
next table: 1163
cur table: 1160
epoch: 1000
next table: 2061
cur table: 2089
epoch: 1000
next table: 1156
cur table: 1163
epoch: 1000
next table: 2061
cur table: 2061
epoch: 1000
next table: 1168
cur table: 1156
epoch: 1000
next table: 1919
cur table: 2061
epoch: 1000
next table: 1176
cur table: 1168
epoch: 1000
next table: 2056
cur table: 1919
epoch: 1000
next table: 1145
cur table: 1176
epoch: 1000
next table: 2076
cur table: 2056
epoch: 1000
next table: 1182
cur table: 1145
epoch: 1000
next table: 2041
cur table: 2076
epoch: 1000
next table: 1151
cur table: 1182
epoch: 1000
next table: 2076
cur table: 2041
epoch: 1000
next table: 1134
cur table: 1151
epoch: 1000
next table: 2047
cur table: 2076
epoch: 1000
next table: 1171
cur table: 1134
epoch: 1000
next table: 2064
cur table: 2047
epoch: 1000
next table: 1158
cur table: 1171
epoch: 1000
next table: 2054
cur table: 2064
epoch: 1000
next table: 1160
cur table: 1158
epoch: 1000
next table: 2070
cur table: 2054
epoch: 1000
next table: 1172
cur table: 1160
epoch: 1000
next table: 2054
cur table: 2070
epoch: 1000
next table: 1155
cur table: 1172
epoch: 1000
next table: 2071
cur table: 2054
epoch: 1000
next table: 1158
cur table: 1155
epoch: 1000
next table: 2052
cur table: 2071
epoch: 1000
next table: 1159
cur table: 1158
epoch: 1000
next table: 2063
cur table: 2052
epoch: 1000
next table: 1174
cur table: 1159
epoch: 1000
next table: 2066
cur table: 2063
epoch: 1000
next table: 1158
cur table: 1174
epoch: 1000
next table: 2063
cur table: 2066
epoch: 1000
next table: 1148
cur table: 1158
epoch: 1000
next table: 2044
cur table: 2063
epoch: 1000
next table: 1148
cur table: 1148
epoch: 1000
next table: 2067
cur table: 2044
epoch: 1000
next table: 1166
cur table: 1148
epoch: 1000
next table: 2068
cur table: 2067
epoch: 1000
next table: 1165
cur table: 1166
epoch: 1000
next table: 2074
cur table: 2068
epoch: 1000
next table: 1157
cur table: 1165
epoch: 1000
next table: 2051
cur table: 2074
epoch: 1000
next table: 1159
cur table: 1157
epoch: 1000
next table: 2054
cur table: 2051
epoch: 1000
next table: 1160
cur table: 1159
epoch: 1000
next table: 2068
cur table: 2054
epoch: 1000
next table: 1155
cur table: 1160
epoch: 1000
next table: 2075
cur table: 2068
epoch: 1000
next table: 1156
cur table: 1155
epoch: 1000
next table: 2063
cur table: 2075
epoch: 1000
next table: 1169
cur table: 1156
epoch: 1000
next table: 2065
cur table: 2063
epoch: 1000
next table: 1164
cur table: 1169
epoch: 1000
next table: 2049
cur table: 2065
epoch: 1000
next table: 1171
cur table: 1164
epoch: 1000
next table: 2029
cur table: 2049
epoch: 1000
next table: 1165
cur table: 1171
epoch: 1000
next table: 1965
cur table: 2029
epoch: 1000
next table: 1148
cur table: 1165
epoch: 1000
next table: 2052
cur table: 1965
epoch: 1000
next table: 1159
cur table: 1148
epoch: 1000
next table: 2054
cur table: 2052
epoch: 1000
next table: 1141
cur table: 1159
epoch: 1000
next table: 2069
cur table: 2054
epoch: 1000
next table: 1155
cur table: 1141
epoch: 1000
next table: 2058
cur table: 2069
epoch: 1000
next table: 1182
cur table: 1155
epoch: 1000
next table: 2074
cur table: 2058
epoch: 1000
next table: 1160
cur table: 1182
epoch: 1000
next table: 2047
cur table: 2074
epoch: 1000
next table: 1152
cur table: 1160
epoch: 1000
next table: 2050
cur table: 2047
epoch: 1000
next table: 1139
cur table: 1152
epoch: 1000
next table: 2067
cur table: 2050
epoch: 1000
next table: 1158
cur table: 1139
epoch: 1000
next table: 2075
cur table: 2067
epoch: 1000
next table: 1161
cur table: 1158
epoch: 1000
next table: 2075
cur table: 2075
epoch: 1000
next table: 1163
cur table: 1161
epoch: 1000
next table: 2064
cur table: 2075
epoch: 1000
next table: 2053
cur table: 2064
epoch: 1000
next table: 1170
cur table: 1163
epoch: 1000
next table: 2064
cur table: 2053
epoch: 1000
next table: 1162
cur table: 1170
epoch: 1000
next table: 2069
cur table: 2064
epoch: 1000
next table: 1150
cur table: 1162
epoch: 1000
next table: 2053
cur table: 2069
epoch: 1000
next table: 1158
cur table: 1150
epoch: 1000
next table: 2056
cur table: 2053
epoch: 1000
next table: 1168
cur table: 1158
epoch: 1000
next table: 2053
cur table: 2056
epoch: 1000
next table: 1158
cur table: 1168
epoch: 1000
next table: 2054
cur table: 2053
epoch: 1000
next table: 1147
cur table: 1158
epoch: 1000
next table: 2083
cur table: 2054
epoch: 1000
next table: 1157
cur table: 1147
epoch: 1000
next table: 2068
cur table: 2083
epoch: 1000
next table: 1170
cur table: 1157
epoch: 1000
next table: 2057
cur table: 2068
epoch: 1000
next table: 1154
cur table: 1170
epoch: 1000
next table: 2060
cur table: 2057
epoch: 1000
next table: 1151
cur table: 1154
epoch: 1000
next table: 2064
cur table: 2060
epoch: 1000
next table: 1168
cur table: 1151
epoch: 1000
next table: 2065
cur table: 2064
epoch: 1000
next table: 1164
cur table: 1168
epoch: 1000
next table: 2059
cur table: 2065
epoch: 1000
next table: 1129
cur table: 1164
epoch: 1000
next table: 2055
cur table: 2059
epoch: 1000
next table: 1149
cur table: 1129
epoch: 1000
next table: 2061
cur table: 2055
epoch: 1000
next table: 1152
cur table: 1149
epoch: 1000
next table: 2066
cur table: 2061
epoch: 1000
next table: 1167
cur table: 1152
epoch: 1000
next table: 2064
cur table: 2066
epoch: 1000
next table: 1149
cur table: 1167
epoch: 1000
next table: 2065
cur table: 2064
epoch: 1000
next table: 1167
cur table: 1149
epoch: 1000
next table: 2011
cur table: 2065
epoch: 1000
next table: 1153
cur table: 1167
epoch: 1000
next table: 2069
cur table: 2011
epoch: 1000
next table: 1174
cur table: 1153
epoch: 1000
next table: 2041
cur table: 2069
epoch: 1000
next table: 1171
cur table: 1174
epoch: 1000
next table: 1964
cur table: 2041
epoch: 1000
next table: 1152
cur table: 1171
epoch: 1000
next table: 2078
cur table: 1964
epoch: 1000
next table: 1162
cur table: 1152
epoch: 1000
next table: 2054
cur table: 2078
epoch: 1000
next table: 1168
cur table: 1162
epoch: 1000
next table: 2077
cur table: 2054
epoch: 1000
next table: 1183
cur table: 1168
epoch: 1000
next table: 2066
cur table: 2077
epoch: 1000
next table: 1163
cur table: 1183
epoch: 1000
next table: 2062
cur table: 2066
epoch: 1000
next table: 1171
cur table: 1163
epoch: 1000
next table: 2045
cur table: 2062
epoch: 1000
next table: 1174
cur table: 1171
epoch: 1000
next table: 2053
cur table: 2045
epoch: 1000
next table: 1140
cur table: 1174
epoch: 1000
next table: 2067
cur table: 2053
epoch: 1000
next table: 1172
cur table: 1140
epoch: 1000
next table: 2062
cur table: 2067
epoch: 1000
next table: 1166
cur table: 1172
epoch: 1000
next table: 2064
cur table: 2062
epoch: 1000
next table: 1169
cur table: 1166
epoch: 1000
next table: 2045
cur table: 2064
epoch: 1000
next table: 1153
cur table: 1169
epoch: 1000
next table: 2053
cur table: 2045
epoch: 1000
next table: 1159
cur table: 1153
epoch: 1000
next table: 2071
cur table: 2053
epoch: 1000
next table: 1174
cur table: 1159
epoch: 1000
next table: 2065
cur table: 2071
epoch: 1000
next table: 1156
cur table: 1174
epoch: 1000
next table: 2070
cur table: 2065
epoch: 1000
next table: 1174
cur table: 1156
epoch: 1000
next table: 2052
cur table: 2070
epoch: 1000
next table: 1157
cur table: 1174
epoch: 1000
next table: 2057
cur table: 2052
epoch: 1000
next table: 1145
cur table: 1157
epoch: 1000
next table: 2066
cur table: 2057
epoch: 1000
next table: 1156
cur table: 1145
epoch: 1000
next table: 2056
cur table: 2066
epoch: 1000
next table: 1155
cur table: 1156
epoch: 1000
next table: 2065
cur table: 2056
epoch: 1000
next table: 1161
cur table: 1155
epoch: 1000
next table: 2067
cur table: 2065
epoch: 1000
next table: 1147
cur table: 1161
epoch: 1000
next table: 1905
cur table: 2067
epoch: 1000
next table: 1149
cur table: 1147
epoch: 1000
next table: 2087
cur table: 1905
epoch: 1000
next table: 1160
cur table: 1149
epoch: 1000
next table: 2062
cur table: 2087
epoch: 1000
next table: 1164
cur table: 1160
epoch: 1000
next table: 2070
cur table: 2062
epoch: 1000
next table: 1153
cur table: 1164
epoch: 1000
next table: 2041
cur table: 2070
epoch: 1000
next table: 1163
cur table: 1153
epoch: 1000
next table: 2070
cur table: 2041
epoch: 1000
next table: 1164
cur table: 1163
epoch: 1000
next table: 2069
cur table: 2070
epoch: 1000
next table: 1152
cur table: 1164
epoch: 1000
next table: 2047
cur table: 2069
epoch: 1000
next table: 1151
cur table: 1152
epoch: 1000
next table: 2088
cur table: 2047
epoch: 1000
next table: 1176
cur table: 1151
epoch: 1000
next table: 2042
cur table: 2088
epoch: 1000
next table: 1170
cur table: 1176
epoch: 1000
next table: 2082
cur table: 2042
epoch: 1000
next table: 1175
cur table: 1170
epoch: 1000
next table: 2056
cur table: 2082
epoch: 1000
next table: 1158
cur table: 1175
epoch: 1000
next table: 2062
cur table: 2056
epoch: 1000
next table: 1170
cur table: 1158
epoch: 1000
next table: 2048
cur table: 2062
epoch: 1000
next table: 1146
cur table: 1170
epoch: 1000
next table: 2059
cur table: 2048
epoch: 1000
next table: 1171
cur table: 1146
epoch: 1000
next table: 2071
cur table: 2059
epoch: 1000
next table: 1158
cur table: 1171
epoch: 1000
next table: 2068
cur table: 2071
epoch: 1000
next table: 1178
cur table: 1158
epoch: 1000
next table: 2064
cur table: 2068
epoch: 1000
next table: 1155
cur table: 1178
epoch: 1000
next table: 2072
cur table: 2064
epoch: 1000
next table: 1161
cur table: 1155
epoch: 1000
next table: 2043
cur table: 2072
epoch: 1000
next table: 1172
cur table: 1161
epoch: 1000
next table: 2068
cur table: 2043
epoch: 1000
next table: 1167
cur table: 1172
epoch: 1000
next table: 2064
cur table: 2068
epoch: 1000
next table: 1179
cur table: 1167
epoch: 1000
next table: 2059
cur table: 2064
epoch: 1000
next table: 1136
cur table: 1179
epoch: 1000
next table: 2061
cur table: 2059
epoch: 1000
next table: 1162
cur table: 1136
epoch: 1000
next table: 2061
cur table: 2061
epoch: 1000
next table: 1174
cur table: 1162
epoch: 1000
next table: 2069
cur table: 2061
epoch: 1000
next table: 1179
cur table: 1174
epoch: 1000
next table: 2063
cur table: 2069
epoch: 1000
next table: 1155
cur table: 1179
epoch: 1000
next table: 2068
cur table: 2063
epoch: 1000
next table: 1144
cur table: 1155
epoch: 1000
next table: 2056
cur table: 2068
epoch: 1000
next table: 1178
cur table: 1144
epoch: 1000
next table: 2055
cur table: 2056
epoch: 1000
next table: 1155
cur table: 1178
epoch: 1000
next table: 2060
cur table: 2055
epoch: 1000
next table: 1186
cur table: 1155
epoch: 1000
next table: 2065
cur table: 2060
epoch: 1000
next table: 1163
cur table: 1186
epoch: 1000
next table: 2063
cur table: 2065
epoch: 1000
next table: 1156
cur table: 1163
epoch: 1000
next table: 2007
cur table: 2063
epoch: 1000
next table: 1161
cur table: 1156
epoch: 1000
next table: 2066
cur table: 2007
epoch: 1000
next table: 1176
cur table: 1161
epoch: 1000
next table: 2044
cur table: 2066
epoch: 1000
next table: 1150
cur table: 1176
epoch: 1000
next table: 1978
cur table: 2044
epoch: 1000
next table: 1167
cur table: 1150
epoch: 1000
next table: 2078
cur table: 1978
epoch: 1000
next table: 1154
cur table: 1167
epoch: 1000
next table: 2041
cur table: 2078
epoch: 1000
next table: 1178
cur table: 1154
epoch: 1000
next table: 2066
cur table: 2041
epoch: 1000
next table: 1152
cur table: 1178
epoch: 1000
next table: 2065
cur table: 2066
epoch: 1000
next table: 1173
cur table: 1152
epoch: 1000
next table: 2039
cur table: 2065
epoch: 1000
next table: 1148
cur table: 1173
epoch: 1000
next table: 2069
cur table: 2039
epoch: 1000
next table: 1156
cur table: 1148
Heartbeat CPU 0 instructions: 40000002 cycles: 13248490 heartbeat IPC: 3.01915 cumulative IPC: 3.01921 (Simulation time: 0 hr 21 min 47 sec) 
epoch: 1000
next table: 2059
cur table: 2069
epoch: 1000
next table: 1166
cur table: 1156
epoch: 1000
next table: 2057
cur table: 2059
epoch: 1000
next table: 1156
cur table: 1166
epoch: 1000
next table: 2081
cur table: 2057
epoch: 1000
next table: 1168
cur table: 1156
epoch: 1000
next table: 2064
cur table: 2081
epoch: 1000
next table: 1167
cur table: 1168
epoch: 1000
next table: 2058
cur table: 2064
epoch: 1000
next table: 1172
cur table: 1167
epoch: 1000
next table: 2054
cur table: 2058
epoch: 1000
next table: 1165
cur table: 1172
epoch: 1000
next table: 2064
cur table: 2054
epoch: 1000
next table: 1174
cur table: 1165
epoch: 1000
next table: 2074
cur table: 2064
epoch: 1000
next table: 1179
cur table: 1174
epoch: 1000
next table: 2047
cur table: 2074
epoch: 1000
next table: 1159
cur table: 1179
epoch: 1000
next table: 2061
cur table: 2047
epoch: 1000
next table: 1134
cur table: 1159
epoch: 1000
next table: 2056
cur table: 2061
epoch: 1000
next table: 1162
cur table: 1134
epoch: 1000
next table: 2067
cur table: 2056
epoch: 1000
next table: 1191
cur table: 1162
epoch: 1000
next table: 2072
cur table: 2067
epoch: 1000
next table: 1173
cur table: 1191
epoch: 1000
next table: 2074
cur table: 2072
epoch: 1000
next table: 1187
cur table: 1173
epoch: 1000
next table: 2042
cur table: 2074
epoch: 1000
next table: 1163
cur table: 1187
epoch: 1000
next table: 2060
cur table: 2042
epoch: 1000
next table: 1136
cur table: 1163
epoch: 1000
next table: 1993
cur table: 2060
epoch: 1000
next table: 1168
cur table: 1136
epoch: 1000
next table: 1975
cur table: 1993
epoch: 1000
next table: 1155
cur table: 1168
epoch: 1000
next table: 2074
cur table: 1975
epoch: 1000
next table: 1168
cur table: 1155
epoch: 1000
next table: 2041
cur table: 2074
epoch: 1000
next table: 1154
cur table: 1168
epoch: 1000
next table: 2082
cur table: 2041
epoch: 1000
next table: 1161
cur table: 1154
epoch: 1000
next table: 2082
cur table: 2082
epoch: 1000
next table: 1156
cur table: 1161
epoch: 1000
next table: 2050
cur table: 2082
epoch: 1000
next table: 1145
cur table: 1156
epoch: 1000
next table: 2055
cur table: 2050
epoch: 1000
next table: 1176
cur table: 1145
epoch: 1000
next table: 2053
cur table: 2055
epoch: 1000
next table: 1156
cur table: 1176
epoch: 1000
next table: 2071
cur table: 2053
epoch: 1000
next table: 1167
cur table: 1156
epoch: 1000
next table: 2060
cur table: 2071
epoch: 1000
next table: 2057
cur table: 2060
epoch: 1000
next table: 1147
cur table: 1167
epoch: 1000
next table: 2039
cur table: 2057
epoch: 1000
next table: 1151
cur table: 1147
epoch: 1000
next table: 2084
cur table: 2039
epoch: 1000
next table: 1178
cur table: 1151
epoch: 1000
next table: 2056
cur table: 2084
epoch: 1000
next table: 1170
cur table: 1178
epoch: 1000
next table: 2075
cur table: 2056
epoch: 1000
next table: 1157
cur table: 1170
epoch: 1000
next table: 2053
cur table: 2075
epoch: 1000
next table: 1162
cur table: 1157
epoch: 1000
next table: 2053
cur table: 2053
epoch: 1000
next table: 1168
cur table: 1162
epoch: 1000
next table: 2045
cur table: 2053
epoch: 1000
next table: 1168
cur table: 1168
epoch: 1000
next table: 2075
cur table: 2045
epoch: 1000
next table: 1173
cur table: 1168
epoch: 1000
next table: 2061
cur table: 2075
epoch: 1000
next table: 1157
cur table: 1173
epoch: 1000
next table: 2069
cur table: 2061
epoch: 1000
next table: 1164
cur table: 1157
epoch: 1000
next table: 2051
cur table: 2069
epoch: 1000
next table: 1193
cur table: 1164
epoch: 1000
next table: 2053
cur table: 2051
epoch: 1000
next table: 1150
cur table: 1193
epoch: 1000
next table: 2041
cur table: 2053
epoch: 1000
next table: 1161
cur table: 1150
epoch: 1000
next table: 2061
cur table: 2041
epoch: 1000
next table: 1159
cur table: 1161
epoch: 1000
next table: 2093
cur table: 2061
epoch: 1000
next table: 1144
cur table: 1159
epoch: 1000
next table: 1908
cur table: 2093
epoch: 1000
next table: 1170
cur table: 1144
epoch: 1000
next table: 2074
cur table: 1908
epoch: 1000
next table: 1158
cur table: 1170
epoch: 1000
next table: 2044
cur table: 2074
epoch: 1000
next table: 1163
cur table: 1158
epoch: 1000
next table: 2039
cur table: 2044
epoch: 1000
next table: 1160
cur table: 1163
epoch: 1000
next table: 2091
cur table: 2039
epoch: 1000
next table: 1172
cur table: 1160
epoch: 1000
next table: 2056
cur table: 2091
epoch: 1000
next table: 1165
cur table: 1172
epoch: 1000
next table: 2060
cur table: 2056
epoch: 1000
next table: 1146
cur table: 1165
epoch: 1000
next table: 2077
cur table: 2060
epoch: 1000
next table: 1192
cur table: 1146
epoch: 1000
next table: 2046
cur table: 2077
epoch: 1000
next table: 1158
cur table: 1192
epoch: 1000
next table: 2065
cur table: 2046
epoch: 1000
next table: 1160
cur table: 1158
epoch: 1000
next table: 2053
cur table: 2065
epoch: 1000
next table: 1165
cur table: 1160
epoch: 1000
next table: 2061
cur table: 2053
epoch: 1000
next table: 1153
cur table: 1165
epoch: 1000
next table: 2064
cur table: 2061
epoch: 1000
next table: 1161
cur table: 1153
epoch: 1000
next table: 2052
cur table: 2064
epoch: 1000
next table: 1167
cur table: 1161
epoch: 1000
next table: 2059
cur table: 2052
epoch: 1000
next table: 1165
cur table: 1167
epoch: 1000
next table: 2059
cur table: 2059
epoch: 1000
next table: 1160
cur table: 1165
epoch: 1000
next table: 2059
cur table: 2059
epoch: 1000
next table: 1190
cur table: 1160
epoch: 1000
next table: 2072
cur table: 2059
epoch: 1000
next table: 1163
cur table: 1190
epoch: 1000
next table: 2063
cur table: 2072
epoch: 1000
next table: 1154
cur table: 1163
epoch: 1000
next table: 1905
cur table: 2063
epoch: 1000
next table: 1174
cur table: 1154
epoch: 1000
next table: 2066
cur table: 1905
epoch: 1000
next table: 1155
cur table: 1174
epoch: 1000
next table: 2048
cur table: 2066
epoch: 1000
next table: 1161
cur table: 1155
epoch: 1000
next table: 2111
cur table: 2048
epoch: 1000
next table: 1149
cur table: 1161
epoch: 1000
next table: 2041
cur table: 2111
epoch: 1000
next table: 1158
cur table: 1149
epoch: 1000
next table: 2049
cur table: 2041
epoch: 1000
next table: 1154
cur table: 1158
epoch: 1000
next table: 2067
cur table: 2049
epoch: 1000
next table: 1163
cur table: 1154
epoch: 1000
next table: 2061
cur table: 2067
epoch: 1000
next table: 1159
cur table: 1163
epoch: 1000
next table: 2062
cur table: 2061
epoch: 1000
next table: 1154
cur table: 1159
epoch: 1000
next table: 2057
cur table: 2062
epoch: 1000
next table: 1187
cur table: 1154
epoch: 1000
next table: 2055
cur table: 2057
epoch: 1000
next table: 1150
cur table: 1187
epoch: 1000
next table: 2068
cur table: 2055
epoch: 1000
next table: 1166
cur table: 1150
epoch: 1000
next table: 2064
cur table: 2068
epoch: 1000
next table: 1170
cur table: 1166
epoch: 1000
next table: 2073
cur table: 2064
epoch: 1000
next table: 1151
cur table: 1170
epoch: 1000
next table: 2054
cur table: 2073
epoch: 1000
next table: 1183
cur table: 1151
epoch: 1000
next table: 2050
cur table: 2054
epoch: 1000
next table: 1165
cur table: 1183
epoch: 1000
next table: 2063
cur table: 2050
epoch: 1000
next table: 1142
cur table: 1165
epoch: 1000
next table: 2067
cur table: 2063
epoch: 1000
next table: 1164
cur table: 1142
epoch: 1000
next table: 2070
cur table: 2067
epoch: 1000
next table: 1162
cur table: 1164
epoch: 1000
next table: 2046
cur table: 2070
epoch: 1000
next table: 1148
cur table: 1162
epoch: 1000
next table: 2065
cur table: 2046
epoch: 1000
next table: 1154
cur table: 1148
epoch: 1000
next table: 2067
cur table: 2065
epoch: 1000
next table: 1144
cur table: 1154
epoch: 1000
next table: 2066
cur table: 2067
epoch: 1000
next table: 1146
cur table: 1144
epoch: 1000
next table: 2066
cur table: 2066
epoch: 1000
next table: 1166
cur table: 1146
epoch: 1000
next table: 2055
cur table: 2066
epoch: 1000
next table: 1154
cur table: 1166
epoch: 1000
next table: 2040
cur table: 2055
epoch: 1000
next table: 1155
cur table: 1154
epoch: 1000
next table: 2084
cur table: 2040
epoch: 1000
next table: 1167
cur table: 1155
epoch: 1000
next table: 2064
cur table: 2084
epoch: 1000
next table: 1156
cur table: 1167
epoch: 1000
next table: 2064
cur table: 2064
epoch: 1000
next table: 1148
cur table: 1156
epoch: 1000
next table: 1891
cur table: 2064
epoch: 1000
next table: 1141
cur table: 1148
epoch: 1000
next table: 2076
cur table: 1891
epoch: 1000
next table: 1173
cur table: 1141
epoch: 1000
next table: 2068
cur table: 2076
epoch: 1000
next table: 1144
cur table: 1173
epoch: 1000
next table: 2068
cur table: 2068
epoch: 1000
next table: 1182
cur table: 1144
epoch: 1000
next table: 2068
cur table: 2068
epoch: 1000
next table: 1170
cur table: 1182
epoch: 1000
next table: 2049
cur table: 2068
epoch: 1000
next table: 1155
cur table: 1170
epoch: 1000
next table: 2053
cur table: 2049
epoch: 1000
next table: 1160
cur table: 1155
epoch: 1000
next table: 2081
cur table: 2053
epoch: 1000
next table: 1165
cur table: 1160
epoch: 1000
next table: 2039
cur table: 2081
epoch: 1000
next table: 1164
cur table: 1165
epoch: 1000
next table: 2068
cur table: 2039
epoch: 1000
next table: 1152
cur table: 1164
epoch: 1000
next table: 2054
cur table: 2068
epoch: 1000
next table: 1152
cur table: 1152
epoch: 1000
next table: 2069
cur table: 2054
epoch: 1000
next table: 1145
cur table: 1152
epoch: 1000
next table: 2085
cur table: 2069
epoch: 1000
next table: 1152
cur table: 1145
epoch: 1000
next table: 2054
cur table: 2085
epoch: 1000
next table: 1151
cur table: 1152
epoch: 1000
next table: 2061
cur table: 2054
epoch: 1000
next table: 1151
cur table: 1151
epoch: 1000
next table: 2057
cur table: 2061
epoch: 1000
next table: 1164
cur table: 1151
epoch: 1000
next table: 2071
cur table: 2057
epoch: 1000
next table: 1147
cur table: 1164
epoch: 1000
next table: 2059
cur table: 2071
epoch: 1000
next table: 1138
cur table: 1147
epoch: 1000
next table: 2049
cur table: 2059
epoch: 1000
next table: 1144
cur table: 1138
epoch: 1000
next table: 2072
cur table: 2049
epoch: 1000
next table: 1162
cur table: 1144
epoch: 1000
next table: 2060
cur table: 2072
epoch: 1000
next table: 1156
cur table: 1162
epoch: 1000
next table: 2062
cur table: 2060
epoch: 1000
next table: 1155
cur table: 1156
epoch: 1000
next table: 2066
cur table: 2062
epoch: 1000
next table: 1175
cur table: 1155
epoch: 1000
next table: 2062
cur table: 2066
epoch: 1000
next table: 2062
cur table: 2062
epoch: 1000
next table: 1157
cur table: 1175
epoch: 1000
next table: 2054
cur table: 2062
epoch: 1000
next table: 1156
cur table: 1157
epoch: 1000
next table: 2062
cur table: 2054
epoch: 1000
next table: 1165
cur table: 1156
epoch: 1000
next table: 2071
cur table: 2062
epoch: 1000
next table: 1158
cur table: 1165
epoch: 1000
next table: 2067
cur table: 2071
epoch: 1000
next table: 1179
cur table: 1158
epoch: 1000
next table: 2061
cur table: 2067
epoch: 1000
next table: 1147
cur table: 1179
epoch: 1000
next table: 2048
cur table: 2061
epoch: 1000
next table: 1161
cur table: 1147
epoch: 1000
next table: 2074
cur table: 2048
epoch: 1000
next table: 1175
cur table: 1161
epoch: 1000
next table: 2072
cur table: 2074
epoch: 1000
next table: 1165
cur table: 1175
epoch: 1000
next table: 2017
cur table: 2072
epoch: 1000
next table: 1177
cur table: 1165
epoch: 1000
next table: 1953
cur table: 2017
epoch: 1000
next table: 1165
cur table: 1177
epoch: 1000
next table: 2064
cur table: 1953
epoch: 1000
next table: 1163
cur table: 1165
epoch: 1000
next table: 2052
cur table: 2064
epoch: 1000
next table: 1146
cur table: 1163
epoch: 1000
next table: 2074
cur table: 2052
epoch: 1000
next table: 1169
cur table: 1146
epoch: 1000
next table: 2060
cur table: 2074
epoch: 1000
next table: 1148
cur table: 1169
epoch: 1000
next table: 2069
cur table: 2060
epoch: 1000
next table: 1151
cur table: 1148
epoch: 1000
next table: 2060
cur table: 2069
epoch: 1000
next table: 1168
cur table: 1151
epoch: 1000
next table: 2062
cur table: 2060
epoch: 1000
next table: 1147
cur table: 1168
epoch: 1000
next table: 2084
cur table: 2062
[...]
cur table: 1126
epoch: 1000
next table: 2066
cur table: 2226
epoch: 1000
next table: 1146
cur table: 1120
epoch: 1000
next table: 2170
cur table: 2066
epoch: 1000
next table: 1140
cur table: 1146
epoch: 1000
next table: 2082
cur table: 2170
epoch: 1000
next table: 1133
cur table: 1140
epoch: 1000
next table: 2182
cur table: 2082
epoch: 1000
next table: 1143
cur table: 1133
epoch: 1000
next table: 2250
cur table: 2182
epoch: 1000
next table: 1132
cur table: 1143
epoch: 1000
next table: 2345
cur table: 2250
epoch: 1000
next table: 1146
cur table: 1132
epoch: 1000
next table: 2216
cur table: 2345
epoch: 1000
next table: 1134
cur table: 1146
epoch: 1000
next table: 2177
cur table: 2216
epoch: 1000
next table: 1141
cur table: 1134
epoch: 1000
next table: 2184
cur table: 2177
epoch: 1000
next table: 1133
cur table: 1141
epoch: 1000
next table: 2082
cur table: 2184
epoch: 1000
next table: 1169
cur table: 1133
epoch: 1000
next table: 2174
cur table: 2082
epoch: 1000
next table: 1124
cur table: 1169
epoch: 1000
next table: 2277
cur table: 2174
epoch: 1000
next table: 1138
cur table: 1124
epoch: 1000
next table: 2223
cur table: 2277
epoch: 1000
next table: 1132
cur table: 1138
epoch: 1000
next table: 2233
cur table: 2223
epoch: 1000
next table: 1111
cur table: 1132
epoch: 1000
next table: 2043
cur table: 2233
epoch: 1000
next table: 1128
cur table: 1111
epoch: 1000
next table: 2069
cur table: 2043
epoch: 1000
next table: 1131
cur table: 1128
epoch: 1000
next table: 2338
cur table: 2069
epoch: 1000
next table: 1149
cur table: 1131
epoch: 1000
next table: 2040
cur table: 2338
epoch: 1000
next table: 1132
cur table: 1149
epoch: 1000
next table: 2162
cur table: 2040
epoch: 1000
next table: 1151
cur table: 1132
epoch: 1000
next table: 2254
cur table: 2162
epoch: 1000
next table: 1142
cur table: 1151
epoch: 1000
next table: 2066
cur table: 2254
epoch: 1000
next table: 1121
cur table: 1142
epoch: 1000
next table: 2234
cur table: 2066
epoch: 1000
next table: 1136
cur table: 1121
epoch: 1000
next table: 2116
cur table: 2234
epoch: 1000
next table: 1146
cur table: 1136
epoch: 1000
next table: 2142
cur table: 2116
epoch: 1000
next table: 1122
cur table: 1146
epoch: 1000
next table: 2200
cur table: 2142
epoch: 1000
next table: 1125
cur table: 1122
epoch: 1000
next table: 2128
cur table: 2200
epoch: 1000
next table: 1134
cur table: 1125
epoch: 1000
next table: 2313
cur table: 2128
epoch: 1000
next table: 1145
cur table: 1134
epoch: 1000
next table: 2247
cur table: 2313
epoch: 1000
next table: 1145
cur table: 1145
epoch: 1000
next table: 2069
cur table: 2247
epoch: 1000
next table: 1139
cur table: 1145
epoch: 1000
next table: 2161
cur table: 2069
epoch: 1000
next table: 1143
cur table: 1139
epoch: 1000
next table: 2166
cur table: 2161
epoch: 1000
next table: 1137
cur table: 1143
epoch: 1000
next table: 2190
cur table: 2166
epoch: 1000
next table: 1148
cur table: 1137
epoch: 1000
next table: 2118
cur table: 2190
epoch: 1000
next table: 1120
cur table: 1148
epoch: 1000
next table: 2069
cur table: 2118
epoch: 1000
next table: 1153
cur table: 1120
epoch: 1000
next table: 2209
cur table: 2069
epoch: 1000
next table: 1136
cur table: 1153
epoch: 1000
next table: 2064
cur table: 2209
epoch: 1000
next table: 1120
cur table: 1136
epoch: 1000
next table: 2198
cur table: 2064
epoch: 1000
next table: 1135
cur table: 1120
epoch: 1000
next table: 2311
cur table: 2198
Heartbeat CPU 0 instructions: 100000001 cycles: 72801574 heartbeat IPC: 0.88868 cumulative IPC: 0.889026 (Simulation time: 0 hr 42 min 59 sec) 
Finished CPU 0 instructions: 50000002 cycles: 56241337 cumulative IPC: 0.889026 (Simulation time: 0 hr 42 min 59 sec) 

ChampSim completed all CPUs

Region of Interest Statistics

CPU 0 cumulative IPC: 0.889026 instructions: 50000002 cycles: 56241337
ITLB TOTAL     ACCESS:    6356566  HIT:    6356566  MISS:          0  HIT %:        100  MISS %:          0   MPKI: 0
ITLB LOAD TRANSLATION ACCESS:    6356566  HIT:    6356566  MISS:          0  HIT %:        100  MISS %:          0   MPKI: 0
ITLB PREFETCH  REQUESTED:          0  ISSUED:          0  USEFUL:          0  USELESS:          0
ITLB USEFUL LOAD PREFETCHES:          0 PREFETCH ISSUED TO LOWER LEVEL:          0  ACCURACY: -nan
ITLB TIMELY PREFETCHES:          0 LATE PREFETCHES: 0 DROPPED PREFETCHES: 0
ITLB PREFETCHES SAME FILL-ORIGIN LEVEL: 0 DIFFERENT FILL-ORIGIN LEVEL: 0
ITLB AVERAGE MISS LATENCY: -nan cycles
ITLB RQ	ACCESS:    8463148	FORWARD:          0	MERGED:    2106582	TO_CACHE:    6356566

Revised Interactions: positive negative neutral
ITLB_interactions 0 0 0 -nan -nan -nan
DTLB TOTAL     ACCESS:   16798965  HIT:   16763228  MISS:      35737  HIT %:    99.7873  MISS %:   0.212733   MPKI: 0.71474
DTLB LOAD TRANSLATION ACCESS:   16798965  HIT:   16763228  MISS:      35737  HIT %:    99.7873  MISS %:   0.212733   MPKI: 0.71474
DTLB PREFETCH  REQUESTED:          0  ISSUED:          0  USEFUL:          0  USELESS:          0
DTLB USEFUL LOAD PREFETCHES:          0 PREFETCH ISSUED TO LOWER LEVEL:          0  ACCURACY: -nan
DTLB TIMELY PREFETCHES:          0 LATE PREFETCHES: 0 DROPPED PREFETCHES: 0
DTLB PREFETCHES SAME FILL-ORIGIN LEVEL: 0 DIFFERENT FILL-ORIGIN LEVEL: 0
DTLB AVERAGE MISS LATENCY: 216.038 cycles
DTLB RQ	ACCESS:   19383195	FORWARD:          0	MERGED:    2579501	TO_CACHE:   16803694

Revised Interactions: positive negative neutral
DTLB_interactions 0 0 0 -nan -nan -nan
STLB TOTAL     ACCESS:      35737  HIT:      20885  MISS:      14852  HIT %:    58.4408  MISS %:    41.5592   MPKI: 0.29704
STLB LOAD TRANSLATION ACCESS:      35737  HIT:      20885  MISS:      14852  HIT %:    58.4408  MISS %:    41.5592   MPKI: 0.29704
STLB PREFETCH  REQUESTED:          0  ISSUED:          0  USEFUL:          0  USELESS:          0
STLB USEFUL LOAD PREFETCHES:          0 PREFETCH ISSUED TO LOWER LEVEL:          0  ACCURACY: -nan
STLB TIMELY PREFETCHES:          0 LATE PREFETCHES: 0 DROPPED PREFETCHES: 0
STLB PREFETCHES SAME FILL-ORIGIN LEVEL: 0 DIFFERENT FILL-ORIGIN LEVEL: 0
STLB AVERAGE MISS LATENCY: 472.458 cycles
STLB RQ	ACCESS:      35737	FORWARD:          0	MERGED:          0	TO_CACHE:      35737

Revised Interactions: positive negative neutral
STLB_interactions 0 0 0 -nan -nan -nan
STLB Hit, L1D data hit: 0
STLB Hit, L2C data hit: 0
STLB Hit, LLC data hit: 0
STLB Hit, LLC data miss: 0
STLB STLB hints to L2: 0
L1D TOTAL     ACCESS:   19333981  HIT:   18334375  MISS:     999606  HIT %:    94.8298  MISS %:     5.1702   MPKI: 19.9921
L1D LOAD      ACCESS:   16522280  HIT:   15547036  MISS:     975244  HIT %:    94.0974  MISS %:     5.9026   MPKI: 19.5049
L1D RFO       ACCESS:    2811701  HIT:    2787339  MISS:      24362  HIT %:    99.1335  MISS %:   0.866451   MPKI: 0.48724
L1D PREFETCH  REQUESTED:          0  ISSUED:          0  USEFUL:          0  USELESS:          0
L1D USEFUL LOAD PREFETCHES:          0 PREFETCH ISSUED TO LOWER LEVEL:          0  ACCURACY: -nan
L1D TIMELY PREFETCHES:          0 LATE PREFETCHES: 0 DROPPED PREFETCHES: 0
L1D PREFETCHES SAME FILL-ORIGIN LEVEL: 0 DIFFERENT FILL-ORIGIN LEVEL: 0
L1D AVERAGE MISS LATENCY: 47.8891 cycles
L1D RQ	ACCESS:   21249752	FORWARD:          0	MERGED:    4615876	TO_CACHE:   16566537
L1D WQ	ACCESS:    2816716	FORWARD:      67339	MERGED:         58	TO_CACHE:    2816658

Revised Interactions: positive negative neutral
L1D_interactions 0 0 0 -nan -nan -nan
L1D UNIQUE REGIONS ACCESSED: 0
L1D REGIONS CONFLICTS: 0
L1D Cross Page Prefetch Requests: 0
L1D Same Page Prefetch Requests: 0
L1D ROI Sum of L1D PQ occupancy: 0
L1D PREFETCHES PUSHED FROM L2C: 0
L1I TOTAL     ACCESS:    8463148  HIT:    8463148  MISS:          0  HIT %:        100  MISS %:          0   MPKI: 0
L1I LOAD      ACCESS:    8463148  HIT:    8463148  MISS:          0  HIT %:        100  MISS %:          0   MPKI: 0
L1I PREFETCH  REQUESTED:          0  ISSUED:          0  USEFUL:          0  USELESS:          0
L1I USEFUL LOAD PREFETCHES:          0 PREFETCH ISSUED TO LOWER LEVEL:          0  ACCURACY: -nan
L1I TIMELY PREFETCHES:          0 LATE PREFETCHES: 0 DROPPED PREFETCHES: 0
L1I PREFETCHES SAME FILL-ORIGIN LEVEL: 0 DIFFERENT FILL-ORIGIN LEVEL: 0
L1I AVERAGE MISS LATENCY: -nan cycles
L1I RQ	ACCESS:   11737534	FORWARD:          0	MERGED:    3274386	TO_CACHE:    8463148

Revised Interactions: positive negative neutral
L1I_interactions 0 0 0 -nan -nan -nan
BTB TOTAL     ACCESS:    1208719  HIT:    1208714  MISS:          5  HIT %:    99.9996  MISS %: 0.000413661   MPKI: 0.0001
BTB BRANCH_DIRECT_JUMP	ACCESS:          0  HIT:          0  MISS:          0
BTB BRANCH_INDIRECT	ACCESS:          0  HIT:          0  MISS:          0
BTB BRANCH_CONDITIONAL	ACCESS:    1208719  HIT:    1208714  MISS:          5
BTB BRANCH_DIRECT_CALL	ACCESS:          0  HIT:          0  MISS:          0
BTB BRANCH_INDIRECT_CALL	ACCESS:          0  HIT:          0  MISS:          0
BTB BRANCH_RETURN	ACCESS:          0  HIT:          0  MISS:          0
BTB BRANCH_OTHER ACCESS:          0  HIT:          0  MISS:          0

L2C TOTAL     ACCESS:    1948716  HIT:     985649  MISS:     963067  HIT %:    50.5794  MISS %:    49.4206   MPKI: 19.2613
L2C LOAD      ACCESS:     975244  HIT:     858928  MISS:     116316  HIT %:    88.0731  MISS %:    11.9269   MPKI: 2.32632
L2C DATA LOAD MPKI: 2.32632
L2C INSTRUCTION LOAD MPKI: 0
L2C RFO       ACCESS:      24362  HIT:          0  MISS:      24362  HIT %:          0  MISS %:        100   MPKI: 0.48724
L2C PREFETCH  ACCESS:     909518  HIT:      91191  MISS:     818327  HIT %:    10.0263  MISS %:    89.9737   MPKI: 16.3665
L2C DATA PREFETCH MPKI: 16.3665
L2C INSTRUCTION PREFETCH MPKI: 0
L2C WRITEBACK ACCESS:      24738  HIT:      22754  MISS:       1984  HIT %:    91.9799  MISS %:    8.02005   MPKI: 0.03968
L2C LOAD TRANSLATION ACCESS:      14854  HIT:      12776  MISS:       2078  HIT %:    86.0105  MISS %:    13.9895   MPKI: 0.04156
L2C PREFETCH  REQUESTED:     930312  ISSUED:     930312  USEFUL:     809910  USELESS:       8453
L2C USEFUL LOAD PREFETCHES:     809910 PREFETCH ISSUED TO LOWER LEVEL:     833549  ACCURACY: 97.1641
L2C TIMELY PREFETCHES:     809910 LATE PREFETCHES: 15199 DROPPED PREFETCHES: 0
L2C PREFETCHES SAME FILL-ORIGIN LEVEL: 833549 DIFFERENT FILL-ORIGIN LEVEL: 0
L2C AVERAGE MISS LATENCY: 188.447 cycles
L2C RQ	ACCESS:    1014461	FORWARD:          0	MERGED:          0	TO_CACHE:    1014461
L2C WQ	ACCESS:      24738	FORWARD:          0	MERGED:          0	TO_CACHE:      24738
L2C PQ	ACCESS:     930312	FORWARD:          0	MERGED:         17	TO_CACHE:     930295

Revised Interactions: positive negative neutral
L2C_interactions 807989 2207 7836 98.7723 0.269794 0.957909
L2C Instructions Evicting Data 0
L2C Translations Evicting Data 2073
L2C Data Evicting Data 956944
L2C Instructions Evicting Instructions 0
L2C Translations Evicting Instructions 0
L2C Data Evicting Instructions 0
L2C Instructions Evicting Translations 0
L2C Translations Evicting Translations 5
L2C Data Evicting Translations 2061
L2C Dense regions hint from L2: 0
PSCL5 TOTAL     ACCESS:      14852  HIT:      14852  MISS:          0  HIT %:        100  MISS %:          0   MPKI: 0
PSCL5 LOAD TRANSLATION ACCESS:      14852  HIT:      14852  MISS:          0  HIT %:        100  MISS %:          0   MPKI: 0
PSCL5 PREFETCH  REQUESTED:          0  ISSUED:          0  USEFUL:          0  USELESS:          0
PSCL5 USEFUL LOAD PREFETCHES:          0 PREFETCH ISSUED TO LOWER LEVEL:          0  ACCURACY: -nan
PSCL5 TIMELY PREFETCHES:          0 LATE PREFETCHES: 0 DROPPED PREFETCHES: 0
PSCL5 PREFETCHES SAME FILL-ORIGIN LEVEL: 0 DIFFERENT FILL-ORIGIN LEVEL: 0

Revised Interactions: positive negative neutral
PSCL5_interactions 0 0 0 -nan -nan -nan
PSCL4 TOTAL     ACCESS:      14852  HIT:      14852  MISS:          0  HIT %:        100  MISS %:          0   MPKI: 0
PSCL4 LOAD TRANSLATION ACCESS:      14852  HIT:      14852  MISS:          0  HIT %:        100  MISS %:          0   MPKI: 0
PSCL4 PREFETCH  REQUESTED:          0  ISSUED:          0  USEFUL:          0  USELESS:          0
PSCL4 USEFUL LOAD PREFETCHES:          0 PREFETCH ISSUED TO LOWER LEVEL:          0  ACCURACY: -nan
PSCL4 TIMELY PREFETCHES:          0 LATE PREFETCHES: 0 DROPPED PREFETCHES: 0
PSCL4 PREFETCHES SAME FILL-ORIGIN LEVEL: 0 DIFFERENT FILL-ORIGIN LEVEL: 0

Revised Interactions: positive negative neutral
PSCL4_interactions 0 0 0 -nan -nan -nan
PSCL3 TOTAL     ACCESS:      14852  HIT:      14852  MISS:          0  HIT %:        100  MISS %:          0   MPKI: 0
PSCL3 LOAD TRANSLATION ACCESS:      14852  HIT:      14852  MISS:          0  HIT %:        100  MISS %:          0   MPKI: 0
PSCL3 PREFETCH  REQUESTED:          0  ISSUED:          0  USEFUL:          0  USELESS:          0
PSCL3 USEFUL LOAD PREFETCHES:          0 PREFETCH ISSUED TO LOWER LEVEL:          0  ACCURACY: -nan
PSCL3 TIMELY PREFETCHES:          0 LATE PREFETCHES: 0 DROPPED PREFETCHES: 0
PSCL3 PREFETCHES SAME FILL-ORIGIN LEVEL: 0 DIFFERENT FILL-ORIGIN LEVEL: 0

Revised Interactions: positive negative neutral
PSCL3_interactions 0 0 0 -nan -nan -nan
PSCL2 TOTAL     ACCESS:      14852  HIT:      14821  MISS:         31  HIT %:    99.7913  MISS %:   0.208726   MPKI: 0.00062
PSCL2 LOAD TRANSLATION ACCESS:      14852  HIT:      14821  MISS:         31  HIT %:    99.7913  MISS %:   0.208726   MPKI: 0.00062
PSCL2 PREFETCH  REQUESTED:          0  ISSUED:          0  USEFUL:          0  USELESS:          0
PSCL2 USEFUL LOAD PREFETCHES:          0 PREFETCH ISSUED TO LOWER LEVEL:          0  ACCURACY: -nan
PSCL2 TIMELY PREFETCHES:          0 LATE PREFETCHES: 0 DROPPED PREFETCHES: 0
PSCL2 PREFETCHES SAME FILL-ORIGIN LEVEL: 0 DIFFERENT FILL-ORIGIN LEVEL: 0

Revised Interactions: positive negative neutral
PSCL2_interactions 0 0 0 -nan -nan -nan
LLC TOTAL     ACCESS:     985512  HIT:       9399  MISS:     976113  HIT %:   0.953717  MISS %:    99.0463   MPKI: 19.5223
LLC LOAD      ACCESS:     101117  HIT:       1404  MISS:      99713  HIT %:    1.38849  MISS %:    98.6115   MPKI: 1.99426
LLC RFO       ACCESS:      24362  HIT:          0  MISS:      24362  HIT %:          0  MISS %:        100   MPKI: 0.48724
LLC PREFETCH  ACCESS:     833526  HIT:       7389  MISS:     826137  HIT %:   0.886475  MISS %:    99.1135   MPKI: 16.5227
LLC WRITEBACK ACCESS:      24429  HIT:        474  MISS:      23955  HIT %:    1.94032  MISS %:    98.0597   MPKI: 0.4791
LLC LOAD TRANSLATION ACCESS:       2078  HIT:        132  MISS:       1946  HIT %:    6.35226  MISS %:    93.6477   MPKI: 0.03892
LLC PREFETCH  REQUESTED:          0  ISSUED:          0  USEFUL:        460  USELESS:     824593
LLC USEFUL LOAD PREFETCHES:        460 PREFETCH ISSUED TO LOWER LEVEL:     826160  ACCURACY: 0.0556793
LLC TIMELY PREFETCHES:        460 LATE PREFETCHES: 0 DROPPED PREFETCHES: 0
LLC PREFETCHES SAME FILL-ORIGIN LEVEL: 0 DIFFERENT FILL-ORIGIN LEVEL: 0
LLC AVERAGE MISS LATENCY: 154.326 cycles
LLC RQ	ACCESS:     127558	FORWARD:          0	MERGED:          0	TO_CACHE:     127558
LLC WQ	ACCESS:      24429	FORWARD:          0	MERGED:          0	TO_CACHE:      24429
LLC PQ	ACCESS:     833549	FORWARD:          0	MERGED:          0	TO_CACHE:     833549

Revised Interactions: positive negative neutral
LLC_interactions 932 824250 66110 0.104567 92.4781 7.41732
LLC Dense regions hint to LLC: 0

RAW hits: 240276
Loads Generated: 21490028
Loads sent to L1D: 21249752
Stores Generated: 2816716
Stores sent to L1D: 2816716
Major fault: 0 Minor fault: 28543
Allocated PAGES: 28543
[Bingo] PHT Access: 35170
[Bingo] PHT Hit PC+Addr: 292
[Bingo] PHT Hit PC+Offs: 34811
[Bingo] PHT Miss: 67
[Bingo] Prefetch PC+Addr: 0
[Bingo] Prefetch PC+Offs: 0
[Bingo] Useful PC+Addr: 0
[Bingo] Useful PC+Offs: 0
[Bingo] Useless PC+Addr: 0
[Bingo] Useless PC+Offs: 0
[Bingo] L1 Prefetch per Region: 0
[Bingo] L2 Prefetch per Region: 29.8684
[Bingo] L3 Prefetch per Region: 0
[Bingo] No Prefetch per Region: 2.13161
[Bingo] Number of Voters Mean: 15.6769
[Bingo] Number of Voters SD: 15.2218
PHT read accesses: 550892
PHT write accesses: 33775
AT read accesses: 962171
AT write accesses: 973850
FT read accesses: 102721
FT write accesses: 35170
PS read accesses: 290743
PS write accesses: 35103
PHT tag read accesses: 1630270
PHT tag write accesses: 34067
AT tag read accesses: 32467590
AT tag write accesses: 995946
FT tag read accesses: 17664339
FT tag write accesses: 104116
PS tag read accesses: 16742721
PS tag write accesses: 324446

DRAM Statistics
 CHANNEL 0
 RQ ROW_BUFFER_HIT:     787758  ROW_BUFFER_MISS:     164408
 DBUS_CONGESTED:        192
 WQ ROW_BUFFER_HIT:       4616  ROW_BUFFER_MISS:      19896  FULL:          0

 AVG_CONGESTED_CYCLE: 3
 All warmup complete: 2
Channel 0 Bank busy for read cycles: 0
Channel 0 Bank busy for write cycles: 0
Channel 0
Rank 0
0banks busy for read cycles: 39915483
0banks busy for write cycles: 6066
1banks busy for read cycles: 5290795
1banks busy for write cycles: 475572
2banks busy for read cycles: 1416160
2banks busy for write cycles: 205840
3banks busy for read cycles: 800284
3banks busy for write cycles: 129713
4banks busy for read cycles: 652538
4banks busy for write cycles: 98808
5banks busy for read cycles: 710483
5banks busy for write cycles: 80522
6banks busy for read cycles: 651107
6banks busy for write cycles: 73478
7banks busy for read cycles: 1164394
7banks busy for write cycles: 67020
8banks busy for read cycles: 4415119
8banks busy for write cycles: 87956

CPU 0 Branch Prediction Accuracy: 81.2317% MPKI: 4.6848 Average ROB Occupancy at Mispredict: 52.7401
Branch types
NOT_BRANCH: 48751635 97.5033%
BRANCH_DIRECT_JUMP: 0 0%
BRANCH_INDIRECT: 0 0%
BRANCH_CONDITIONAL: 1248064 2.49613%
BRANCH_DIRECT_CALL: 0 0%
BRANCH_INDIRECT_CALL: 0 0%
BRANCH_RETURN: 0 0%
BRANCH_OTHER: 0 0%

@sumon_overall_L1D         0         0         0         0         0         0         0
@Sumon_Early_by_class_L1D         0         0         0         0
@Sumon_Late_by_class_L1D         0         0         0         0

@Sumon_Early_by_cycle_L1D         0         0         0         0         0         0         0         0         0         0         0         0
@Sumon_Late_by_cycle_L1D         0         0         0         0         0         0
@Sumon_Early_stream_L1D         0         0         0         0         0         0         0         0         0         0         0         0
@Sumon_Early_CS_L1D         0         0         0         0         0         0         0         0         0         0         0         0
@Sumon_Early_CPLX_L1D         0         0         0         0         0         0         0         0         0         0         0         0
@Sumon_Late_stream_L1D         0         0         0         0         0         0
@Sumon_Late_CS_L1D         0         0         0         0         0         0
@Sumon_Late_CPLX_L1D         0         0         0         0         0         0
@sumon_overall_L2C    809910     15199         0      8453    818327    930312    930312
@Sumon_Early_by_class_L2C         0         0         0         0
@Sumon_Late_by_class_L2C         0         0         0         0

@Sumon_Early_by_cycle_L2C      2863      5027      7338      6592     10177    131082    209860    334489     52724     32518     17070       170
@Sumon_Late_by_cycle_L2C       872       338      1008      2768     10054       159
@Sumon_Early_stream_L2C         0         0         0         0         0         0         0         0         0         0         0         0
@Sumon_Early_CS_L2C         0         0         0         0         0         0         0         0         0         0         0         0
@Sumon_Early_CPLX_L2C         0         0         0         0         0         0         0         0         0         0         0         0
@Sumon_Late_stream_L2C         0         0         0         0         0         0
@Sumon_Late_CS_L2C         0         0         0         0         0         0
@Sumon_Late_CPLX_L2C         0         0         0         0         0         0
DRAM PAGES: 1048576
Allocated PAGES: 28543
