
*** ChampSim Multicore Out-of-Order Simulator ***

Warmup Instructions: 50000000
Simulation Instructions: 50000000
Number of CPUs: 1
LLC sets: 2048
LLC ways: 16
Off-chip DRAM Size: 4096 MB Channels: 1 Width: 64-bit Data Rate: 6400 MT/s
CPU 0 runs ../../biswa/SPEC2017Traces/607.cactuBSSN_s-3477B.champsimtrace.xz
.xz
CPU 0 Bimodal branch predictor
BTB has LRU replacement policy
ITLB has LRU replacement policy
DTLB has LRU replacement policy
STLB has LRU replacement policy
L1I has LRU replacement policy
L1D has LRU replacement policy
Bingo PHT WAYS: 16 and PHT_SIZE: 16384
Initialize DRRIP state for L2C
Initialize Hawkeye state
epoch: 1000
next table: 23482
cur table: 80193
epoch: 1000
next table: 25831
cur table: 23482
epoch: 1000
next table: 24504
cur table: 25831
epoch: 1000
next table: 27488
cur table: 24504
epoch: 1000
next table: 22069
cur table: 27488
epoch: 1000
next table: 21720
cur table: 22069
epoch: 1000
next table: 26547
cur table: 21720
epoch: 1000
next table: 23857
cur table: 26547
epoch: 1000
next table: 17242
cur table: 23857
epoch: 1000
next table: 23334
cur table: 17242
epoch: 1000
next table: 27773
cur table: 23334
epoch: 1000
next table: 23630
cur table: 27773
epoch: 1000
next table: 19389
cur table: 23630
epoch: 1000
next table: 24526
cur table: 19389
epoch: 1000
next table: 20254
cur table: 24526
epoch: 1000
next table: 21879
cur table: 20254
epoch: 1000
next table: 24518
cur table: 21879
epoch: 1000
next table: 15895
cur table: 24518
epoch: 1000
next table: 22983
cur table: 15895
epoch: 1000
next table: 23851
cur table: 22983
epoch: 1000
next table: 23979
cur table: 23851
epoch: 1000
next table: 18213
cur table: 23979
epoch: 1000
next table: 18382
cur table: 18213
epoch: 1000
next table: 26053
cur table: 18382
epoch: 1000
next table: 19578
cur table: 26053
epoch: 1000
next table: 23717
cur table: 19578
epoch: 1000
next table: 20462
cur table: 23717
epoch: 1000
next table: 25197
cur table: 20462
epoch: 1000
next table: 25827
cur table: 25197
epoch: 1000
next table: 21841
cur table: 25827
epoch: 1000
next table: 22421
cur table: 21841
epoch: 1000
next table: 23131
cur table: 22421
epoch: 1000
next table: 25971
cur table: 23131
epoch: 1000
next table: 26031
cur table: 25971
epoch: 1000
next table: 19755
cur table: 26031
epoch: 1000
next table: 19617
cur table: 19755
epoch: 1000
next table: 23627
cur table: 19617
epoch: 1000
next table: 21212
cur table: 23627
epoch: 1000
next table: 21566
cur table: 21212
epoch: 1000
next table: 18760
cur table: 21566
epoch: 1000
next table: 20863
cur table: 18760
epoch: 1000
next table: 23051
cur table: 20863
epoch: 1000
next table: 19381
cur table: 23051
Heartbeat CPU 0 instructions: 10000000 cycles: 3672304 heartbeat IPC: 2.72309 cumulative IPC: 2.72309 (Simulation time: 0 hr 6 min 1 sec) 
epoch: 1000
next table: 22124
cur table: 19381
epoch: 1000
next table: 17073
cur table: 22124
epoch: 1000
next table: 19121
cur table: 17073
epoch: 1000
next table: 23290
cur table: 19121
epoch: 1000
next table: 3292
cur table: 41846
epoch: 1000
next table: 22311
cur table: 23290
epoch: 1000
next table: 18180
cur table: 22311
epoch: 1000
next table: 17928
cur table: 18180
epoch: 1000
next table: 2559
cur table: 3292
epoch: 1000
next table: 23695
cur table: 17928
epoch: 1000
next table: 19307
cur table: 23695
epoch: 1000
next table: 2489
cur table: 2559
epoch: 1000
next table: 18661
cur table: 19307
epoch: 1000
next table: 19500
cur table: 18661
epoch: 1000
next table: 2413
cur table: 2489
epoch: 1000
next table: 21121
cur table: 19500
epoch: 1000
next table: 20090
cur table: 21121
epoch: 1000
next table: 21511
cur table: 20090
epoch: 1000
next table: 2245
cur table: 2413
epoch: 1000
next table: 23562
cur table: 21511
epoch: 1000
next table: 17900
cur table: 23562
epoch: 1000
next table: 2374
cur table: 2245
epoch: 1000
next table: 20265
cur table: 17900
epoch: 1000
next table: 2234
cur table: 2374
epoch: 1000
next table: 17872
cur table: 20265
epoch: 1000
next table: 17301
cur table: 17872
epoch: 1000
next table: 2253
cur table: 2234
epoch: 1000
next table: 22384
cur table: 17301
epoch: 1000
next table: 18899
cur table: 22384
epoch: 1000
next table: 2196
cur table: 2253
epoch: 1000
next table: 21433
cur table: 18899
epoch: 1000
next table: 23831
cur table: 21433
epoch: 1000
next table: 2354
cur table: 2196
epoch: 1000
next table: 19695
cur table: 23831
epoch: 1000
next table: 22945
cur table: 19695
epoch: 1000
next table: 2342
cur table: 2354
epoch: 1000
next table: 20468
cur table: 22945
epoch: 1000
next table: 23576
cur table: 20468
epoch: 1000
next table: 2164
cur table: 2342
epoch: 1000
next table: 21461
cur table: 23576
epoch: 1000
next table: 2133
cur table: 2164
epoch: 1000
next table: 26098
cur table: 21461
epoch: 1000
next table: 19908
cur table: 26098
epoch: 1000
next table: 2265
cur table: 2133
epoch: 1000
next table: 23108
cur table: 19908
epoch: 1000
next table: 24119
cur table: 23108
epoch: 1000
next table: 2229
cur table: 2265
epoch: 1000
next table: 23751
cur table: 24119
epoch: 1000
next table: 2192
cur table: 2229
epoch: 1000
next table: 22881
cur table: 23751
epoch: 1000
next table: 19583
cur table: 22881
epoch: 1000
next table: 2183
cur table: 2192
epoch: 1000
next table: 24893
cur table: 19583
epoch: 1000
next table: 20151
cur table: 24893
epoch: 1000
next table: 2211
cur table: 2183
epoch: 1000
next table: 22778
cur table: 20151
epoch: 1000
next table: 24465
cur table: 22778
epoch: 1000
next table: 2201
cur table: 2211
epoch: 1000
next table: 23232
cur table: 24465
epoch: 1000
next table: 2108
cur table: 2201
epoch: 1000
next table: 20231
cur table: 23232
epoch: 1000
next table: 27705
cur table: 20231
epoch: 1000
next table: 2191
cur table: 2108
epoch: 1000
next table: 20561
cur table: 27705
epoch: 1000
next table: 27759
cur table: 20561
epoch: 1000
next table: 2186
cur table: 2191
epoch: 1000
next table: 28110
cur table: 27759
epoch: 1000
next table: 2076
cur table: 2186
epoch: 1000
next table: 23965
cur table: 28110
epoch: 1000
next table: 19901
cur table: 23965
epoch: 1000
next table: 2102
cur table: 2076
epoch: 1000
next table: 25832
cur table: 19901
epoch: 1000
next table: 2164
cur table: 2102
epoch: 1000
next table: 23779
cur table: 25832
Heartbeat CPU 0 instructions: 20000003 cycles: 7342901 heartbeat IPC: 2.72435 cumulative IPC: 2.72372 (Simulation time: 0 hr 12 min 4 sec) 
epoch: 1000
next table: 25818
cur table: 23779
epoch: 1000
next table: 2314
cur table: 2164
epoch: 1000
next table: 22667
cur table: 25818
epoch: 1000
next table: 23573
cur table: 22667
epoch: 1000
next table: 2037
cur table: 2314
epoch: 1000
next table: 23689
cur table: 23573
epoch: 1000
next table: 2086
cur table: 2037
epoch: 1000
next table: 25953
cur table: 23689
epoch: 1000
next table: 19051
cur table: 25953
epoch: 1000
next table: 2130
cur table: 2086
epoch: 1000
next table: 20324
cur table: 19051
epoch: 1000
next table: 23502
cur table: 20324
epoch: 1000
next table: 2154
cur table: 2130
epoch: 1000
next table: 23644
cur table: 23502
epoch: 1000
next table: 23377
cur table: 23644
epoch: 1000
next table: 2173
cur table: 2154
epoch: 1000
next table: 16132
cur table: 23377
epoch: 1000
next table: 23505
cur table: 16132
epoch: 1000
next table: 2189
cur table: 2173
epoch: 1000
next table: 19107
cur table: 23505
epoch: 1000
next table: 19282
cur table: 19107
epoch: 1000
next table: 2244
cur table: 2189
epoch: 1000
next table: 19399
cur table: 19282
epoch: 1000
next table: 2261
cur table: 2244
epoch: 1000
next table: 21674
cur table: 19399
epoch: 1000
next table: 17235
cur table: 21674
epoch: 1000
next table: 21196
cur table: 17235
epoch: 1000
next table: 2185
cur table: 2261
epoch: 1000
next table: 23586
cur table: 21196
epoch: 1000
next table: 2238
cur table: 2185
epoch: 1000
next table: 19498
cur table: 23586
epoch: 1000
next table: 13452
cur table: 19498
epoch: 1000
next table: 19257
cur table: 13452
epoch: 1000
next table: 2227
cur table: 2238
epoch: 1000
next table: 23160
cur table: 19257
epoch: 1000
next table: 22744
cur table: 23160
epoch: 1000
next table: 2233
cur table: 2227
epoch: 1000
next table: 19613
cur table: 22744
epoch: 1000
next table: 14430
cur table: 19613
epoch: 1000
next table: 2238
cur table: 2233
epoch: 1000
next table: 22729
cur table: 14430
epoch: 1000
next table: 2285
cur table: 2238
epoch: 1000
next table: 17194
cur table: 22729
epoch: 1000
next table: 19444
cur table: 17194
epoch: 1000
next table: 2209
cur table: 2285
epoch: 1000
next table: 23063
cur table: 19444
epoch: 1000
next table: 18034
cur table: 23063
epoch: 1000
next table: 2236
cur table: 2209
epoch: 1000
next table: 20335
cur table: 18034
epoch: 1000
next table: 20149
cur table: 20335
epoch: 1000
next table: 2242
cur table: 2236
epoch: 1000
next table: 23527
cur table: 20149
epoch: 1000
next table: 19371
cur table: 23527
epoch: 1000
next table: 2224
cur table: 2242
epoch: 1000
next table: 15812
cur table: 19371
epoch: 1000
next table: 22089
cur table: 15812
epoch: 1000
next table: 2210
cur table: 2224
epoch: 1000
next table: 24624
cur table: 22089
epoch: 1000
next table: 17953
cur table: 24624
epoch: 1000
next table: 2323
cur table: 2210
epoch: 1000
next table: 19443
cur table: 17953
epoch: 1000
next table: 16969
cur table: 19443
epoch: 1000
next table: 2224
cur table: 2323
epoch: 1000
next table: 23321
cur table: 16969
epoch: 1000
next table: 19073
cur table: 23321
epoch: 1000
next table: 2224
cur table: 2224
epoch: 1000
next table: 19290
cur table: 19073
epoch: 1000
next table: 20611
cur table: 19290
epoch: 1000
next table: 2250
cur table: 2224
epoch: 1000
next table: 19263
cur table: 20611
epoch: 1000
next table: 21763
cur table: 19263
epoch: 1000
next table: 2137
cur table: 2250
epoch: 1000
next table: 18000
cur table: 21763
epoch: 1000
next table: 21691
cur table: 18000
epoch: 1000
next table: 2332
cur table: 2137
epoch: 1000
next table: 18557
cur table: 21691
epoch: 1000
next table: 20347
cur table: 18557
epoch: 1000
next table: 2173
cur table: 2332
epoch: 1000
next table: 21367
cur table: 20347
epoch: 1000
next table: 21628
cur table: 21367
Heartbeat CPU 0 instructions: 30000000 cycles: 11013322 heartbeat IPC: 2.72448 cumulative IPC: 2.72397 (Simulation time: 0 hr 18 min 49 sec) 
epoch: 1000
next table: 2172
cur table: 2173
epoch: 1000
next table: 20928
cur table: 21628
epoch: 1000
next table: 15776
cur table: 20928
epoch: 1000
next table: 2243
cur table: 2172
epoch: 1000
next table: 21674
cur table: 15776
epoch: 1000
next table: 19271
cur table: 21674
epoch: 1000
next table: 2275
cur table: 2243
epoch: 1000
next table: 18705
cur table: 19271
epoch: 1000
next table: 19470
cur table: 18705
epoch: 1000
next table: 2238
cur table: 2275
epoch: 1000
next table: 20240
cur table: 19470
epoch: 1000
next table: 19360
cur table: 20240
epoch: 1000
next table: 2280
cur table: 2238
epoch: 1000
next table: 23157
cur table: 19360
epoch: 1000
next table: 23769
cur table: 23157
epoch: 1000
next table: 2214
cur table: 2280
epoch: 1000
next table: 23668
cur table: 23769
epoch: 1000
next table: 2142
cur table: 2214
epoch: 1000
next table: 19688
cur table: 23668
epoch: 1000
next table: 23708
cur table: 19688
epoch: 1000
next table: 2226
cur table: 2142
epoch: 1000
next table: 23651
cur table: 23708
epoch: 1000
next table: 23375
cur table: 23651
epoch: 1000
next table: 2131
cur table: 2226
epoch: 1000
next table: 16333
cur table: 23375
epoch: 1000
next table: 27811
cur table: 16333
epoch: 1000
next table: 2192
cur table: 2131
epoch: 1000
next table: 19694
cur table: 27811
epoch: 1000
next table: 2229
cur table: 2192
epoch: 1000
next table: 22618
cur table: 19694
epoch: 1000
next table: 24103
cur table: 22618
epoch: 1000
next table: 2212
cur table: 2229
epoch: 1000
next table: 18001
cur table: 24103
epoch: 1000
next table: 22015
cur table: 18001
epoch: 1000
next table: 2135
cur table: 2212
epoch: 1000
next table: 23111
cur table: 22015
epoch: 1000
next table: 23667
cur table: 23111
epoch: 1000
next table: 2249
cur table: 2135
epoch: 1000
next table: 17734
cur table: 23667
epoch: 1000
next table: 21687
cur table: 17734
epoch: 1000
next table: 2209
cur table: 2249
epoch: 1000
next table: 26325
cur table: 21687
epoch: 1000
next table: 18381
cur table: 26325
epoch: 1000
next table: 2245
cur table: 2209
epoch: 1000
next table: 21551
cur table: 18381
epoch: 1000
next table: 2275
cur table: 2245
epoch: 1000
next table: 20024
cur table: 21551
epoch: 1000
next table: 23576
cur table: 20024
epoch: 1000
next table: 2272
cur table: 2275
epoch: 1000
next table: 19013
cur table: 23576
epoch: 1000
next table: 18218
cur table: 19013
epoch: 1000
next table: 2182
cur table: 2272
epoch: 1000
next table: 24137
cur table: 18218
epoch: 1000
next table: 16800
cur table: 24137
epoch: 1000
next table: 2179
cur table: 2182
epoch: 1000
next table: 23254
cur table: 16800
epoch: 1000
next table: 23681
cur table: 23254
epoch: 1000
next table: 2255
cur table: 2179
epoch: 1000
next table: 22251
cur table: 23681
epoch: 1000
next table: 16870
cur table: 22251
epoch: 1000
next table: 2236
cur table: 2255
epoch: 1000
next table: 19722
cur table: 16870
epoch: 1000
next table: 25111
cur table: 19722
epoch: 1000
next table: 2294
cur table: 2236
epoch: 1000
next table: 20263
cur table: 25111
epoch: 1000
next table: 2152
cur table: 2294
epoch: 1000
next table: 20340
cur table: 20263
epoch: 1000
next table: 20169
cur table: 20340
epoch: 1000
next table: 2308
cur table: 2152
epoch: 1000
next table: 23555
cur table: 20169
epoch: 1000
next table: 19084
cur table: 23555
epoch: 1000
next table: 2163
cur table: 2308
epoch: 1000
next table: 19885
cur table: 19084
epoch: 1000
next table: 24901
cur table: 19885
epoch: 1000
next table: 2297
cur table: 2163
epoch: 1000
next table: 18626
cur table: 24901
epoch: 1000
next table: 23516
cur table: 18626
epoch: 1000
next table: 2175
cur table: 2297
Heartbeat CPU 0 instructions: 40000003 cycles: 14683972 heartbeat IPC: 2.72431 cumulative IPC: 2.72406 (Simulation time: 0 hr 25 min 49 sec) 
epoch: 1000
next table: 23832
cur table: 23516
epoch: 1000
next table: 23437
cur table: 23832
epoch: 1000
next table: 2197
cur table: 2175
epoch: 1000
next table: 20277
cur table: 23437
epoch: 1000
next table: 2155
cur table: 2197
epoch: 1000
next table: 24320
cur table: 20277
epoch: 1000
next table: 26932
cur table: 24320
epoch: 1000
next table: 2139
cur table: 2155
epoch: 1000
next table: 21521
cur table: 26932
epoch: 1000
next table: 22726
cur table: 21521
epoch: 1000
next table: 2186
cur table: 2139
epoch: 1000
next table: 23627
cur table: 22726
epoch: 1000
next table: 2090
cur table: 2186
epoch: 1000
next table: 19394
cur table: 23627
epoch: 1000
next table: 23888
cur table: 19394
epoch: 1000
next table: 2216
cur table: 2090
epoch: 1000
next table: 23995
cur table: 23888
epoch: 1000
next table: 24257
cur table: 23995
epoch: 1000
next table: 2175
cur table: 2216
epoch: 1000
next table: 23096
cur table: 24257
epoch: 1000
next table: 2097
cur table: 2175
epoch: 1000
next table: 24083
cur table: 23096
epoch: 1000
next table: 23469
cur table: 24083
epoch: 1000
next table: 2128
cur table: 2097
epoch: 1000
next table: 16328
cur table: 23469
epoch: 1000
next table: 28325
cur table: 16328
epoch: 1000
next table: 2140
cur table: 2128
epoch: 1000
next table: 22659
cur table: 28325
epoch: 1000
next table: 23369
cur table: 22659
epoch: 1000
next table: 2141
cur table: 2140
epoch: 1000
next table: 20477
cur table: 23369
epoch: 1000
next table: 2217
cur table: 2141
epoch: 1000
next table: 19647
cur table: 20477
epoch: 1000
next table: 20904
cur table: 19647
epoch: 1000
next table: 2223
cur table: 2217
epoch: 1000
next table: 22179
cur table: 20904
epoch: 1000
next table: 24607
cur table: 22179
epoch: 1000
next table: 2171
cur table: 2223
epoch: 1000
next table: 21847
cur table: 24607
epoch: 1000
next table: 20472
cur table: 21847
epoch: 1000
next table: 2141
cur table: 2171
epoch: 1000
next table: 24021
cur table: 20472
epoch: 1000
next table: 23246
cur table: 24021
epoch: 1000
next table: 2197
cur table: 2141
epoch: 1000
next table: 17812
cur table: 23246
epoch: 1000
next table: 2170
cur table: 2197
epoch: 1000
next table: 25813
cur table: 17812
epoch: 1000
next table: 23583
cur table: 25813
epoch: 1000
next table: 2198
cur table: 2170
epoch: 1000
next table: 20020
cur table: 23583
epoch: 1000
next table: 19523
cur table: 20020
epoch: 1000
next table: 1898
cur table: 2198
epoch: 1000
next table: 5472
cur table: 19523
epoch: 1000
next table: 1696
cur table: 1898
epoch: 1000
next table: 10500
cur table: 5472
epoch: 1000
next table: 1545
cur table: 1696
epoch: 1000
next table: 10556
cur table: 10500
epoch: 1000
next table: 1526
cur table: 1545
epoch: 1000
next table: 13422
cur table: 10556
epoch: 1000
next table: 1549
cur table: 1526
epoch: 1000
next table: 13414
cur table: 13422
epoch: 1000
next table: 1631
cur table: 1549
epoch: 1000
next table: 10655
cur table: 13414
epoch: 1000
next table: 1778
cur table: 1631
epoch: 1000
next table: 15204
cur table: 10655
epoch: 1000
next table: 1850
cur table: 1778
epoch: 1000
next table: 16699
cur table: 15204
epoch: 1000
next table: 18323
cur table: 16699
epoch: 1000
next table: 1979
cur table: 1850
epoch: 1000
next table: 25591
cur table: 18323
epoch: 1000
next table: 2157
cur table: 1979
epoch: 1000
next table: 29284
cur table: 25591
epoch: 1000
next table: 24732
cur table: 29284
epoch: 1000
next table: 2097
cur table: 2157
epoch: 1000
next table: 24383
cur table: 24732
epoch: 1000
next table: 2074
cur table: 2097
epoch: 1000
next table: 28644
cur table: 24383
epoch: 1000
next table: 27419
cur table: 28644
epoch: 1000
next table: 1976
cur table: 2074
epoch: 1000
next table: 25044
cur table: 27419
epoch: 1000
next table: 2192
cur table: 1976
epoch: 1000
next table: 24055
cur table: 25044
Heartbeat CPU 0 instructions: 50000000 cycles: 18356797 heartbeat IPC: 2.7227 cumulative IPC: 2.72379 (Simulation time: 0 hr 31 min 4 sec) 

Warmup complete CPU 0 instructions: 50000004 cycles: 18356798 (Simulation time: 0 hr 31 min 4 sec) 

epoch: 1000
next table: 25393
cur table: 26081
epoch: 1000
next table: 22782
cur table: 25393
epoch: 1000
next table: 1972
cur table: 2086
epoch: 1000
next table: 27851
cur table: 22782
epoch: 1000
next table: 2146
cur table: 1972
epoch: 1000
next table: 24278
cur table: 27851
epoch: 1000
next table: 22828
cur table: 24278
epoch: 1000
next table: 2174
cur table: 2146
epoch: 1000
next table: 23952
cur table: 22828
epoch: 1000
next table: 24581
cur table: 23952
epoch: 1000
next table: 2177
cur table: 2174
epoch: 1000
next table: 21974
cur table: 24581
epoch: 1000
next table: 2122
cur table: 2177
epoch: 1000
next table: 23103
cur table: 21974
epoch: 1000
next table: 18385
cur table: 23103
epoch: 1000
next table: 2335
cur table: 2122
epoch: 1000
next table: 21008
cur table: 18385
epoch: 1000
next table: 21286
cur table: 21008
epoch: 1000
next table: 2214
cur table: 2335
epoch: 1000
next table: 25885
cur table: 21286
epoch: 1000
next table: 16765
cur table: 25885
epoch: 1000
next table: 2317
cur table: 2214
epoch: 1000
next table: 19827
cur table: 16765
epoch: 1000
next table: 23907
cur table: 19827
epoch: 1000
next table: 2168
cur table: 2317
epoch: 1000
next table: 19634
cur table: 23907
epoch: 1000
next table: 22018
cur table: 19634
epoch: 1000
next table: 2323
cur table: 2168
epoch: 1000
next table: 16981
cur table: 22018
epoch: 1000
next table: 23523
cur table: 16981
epoch: 1000
next table: 2267
cur table: 2323
epoch: 1000
next table: 19837
cur table: 23523
epoch: 1000
next table: 21211
cur table: 19837
epoch: 1000
next table: 2198
cur table: 2267
epoch: 1000
next table: 20866
cur table: 21211
epoch: 1000
next table: 18053
cur table: 20866
epoch: 1000
next table: 2352
cur table: 2198
epoch: 1000
next table: 18976
cur table: 18053
epoch: 1000
next table: 21369
cur table: 18976
epoch: 1000
next table: 2329
cur table: 2352
epoch: 1000
next table: 22364
cur table: 21369
epoch: 1000
next table: 20205
cur table: 22364
epoch: 1000
next table: 2252
cur table: 2329
epoch: 1000
next table: 16675
cur table: 20205
epoch: 1000
next table: 20545
cur table: 16675
epoch: 1000
next table: 2264
cur table: 2252
epoch: 1000
next table: 21383
cur table: 20545
epoch: 1000
next table: 21319
cur table: 21383
epoch: 1000
next table: 2238
cur table: 2264
epoch: 1000
next table: 21463
cur table: 21319
epoch: 1000
next table: 17847
cur table: 21463
epoch: 1000
next table: 2236
cur table: 2238
epoch: 1000
next table: 22000
cur table: 17847
epoch: 1000
next table: 22810
cur table: 22000
epoch: 1000
next table: 2232
cur table: 2236
epoch: 1000
next table: 19829
cur table: 22810
epoch: 1000
next table: 2245
cur table: 2232
epoch: 1000
next table: 20529
cur table: 19829
epoch: 1000
next table: 18315
cur table: 20529
epoch: 1000
next table: 2269
cur table: 2245
epoch: 1000
next table: 19574
cur table: 18315
epoch: 1000
next table: 23395
cur table: 19574
epoch: 1000
next table: 2243
cur table: 2269
epoch: 1000
next table: 22144
cur table: 23395
epoch: 1000
next table: 17434
cur table: 22144
epoch: 1000
next table: 2122
cur table: 2243
epoch: 1000
next table: 20861
cur table: 17434
epoch: 1000
next table: 21751
cur table: 20861
epoch: 1000
next table: 2273
cur table: 2122
epoch: 1000
next table: 20859
cur table: 21751
epoch: 1000
next table: 21385
cur table: 20859
epoch: 1000
next table: 2285
cur table: 2273
epoch: 1000
next table: 20020
cur table: 21385
epoch: 1000
next table: 21426
cur table: 20020
Heartbeat CPU 0 instructions: 60000000 cycles: 30014008 heartbeat IPC: 0.857838 cumulative IPC: 0.857838 (Simulation time: 0 hr 35 min 29 sec) 
epoch: 1000
next table: 2206
cur table: 2285
epoch: 1000
next table: 21183
cur table: 21426
epoch: 1000
next table: 19260
cur table: 21183
epoch: 1000
next table: 2178
cur table: 2206
epoch: 1000
next table: 23699
cur table: 19260
epoch: 1000
next table: 15897
cur table: 23699
epoch: 1000
next table: 2334
cur table: 2178
epoch: 1000
next table: 18904
cur table: 15897
epoch: 1000
next table: 23550
cur table: 18904
epoch: 1000
next table: 2271
cur table: 2334
epoch: 1000
next table: 23868
cur table: 23550
epoch: 1000
next table: 2157
cur table: 2271
epoch: 1000
next table: 20610
cur table: 23868
epoch: 1000
next table: 19426
cur table: 20610
epoch: 1000
next table: 2102
cur table: 2157
epoch: 1000
next table: 25112
cur table: 19426
epoch: 1000
next table: 25753
cur table: 25112
epoch: 1000
next table: 2209
cur table: 2102
epoch: 1000
next table: 24696
cur table: 25753
epoch: 1000
next table: 2091
cur table: 2209
epoch: 1000
next table: 28352
cur table: 24696
epoch: 1000
next table: 24475
cur table: 28352
epoch: 1000
next table: 2107
cur table: 2091
epoch: 1000
next table: 23024
cur table: 24475
epoch: 1000
next table: 1976
cur table: 2107
epoch: 1000
next table: 28025
cur table: 23024
epoch: 1000
next table: 23764
cur table: 28025
epoch: 1000
next table: 2150
cur table: 1976
epoch: 1000
next table: 25304
cur table: 23764
epoch: 1000
next table: 2125
cur table: 2150
epoch: 1000
next table: 27808
cur table: 25304
epoch: 1000
next table: 24622
cur table: 27808
epoch: 1000
next table: 2025
cur table: 2125
epoch: 1000
next table: 23347
cur table: 24622
epoch: 1000
next table: 2112
cur table: 2025
epoch: 1000
next table: 28264
cur table: 23347
epoch: 1000
next table: 23987
cur table: 28264
epoch: 1000
next table: 2099
cur table: 2112
epoch: 1000
next table: 24568
cur table: 23987
epoch: 1000
next table: 28216
cur table: 24568
epoch: 1000
next table: 2097
cur table: 2099
epoch: 1000
next table: 23130
cur table: 28216
epoch: 1000
next table: 2056
cur table: 2097
epoch: 1000
next table: 26156
cur table: 23130
epoch: 1000
next table: 18960
cur table: 26156
epoch: 1000
next table: 2226
cur table: 2056
epoch: 1000
next table: 27269
cur table: 18960
epoch: 1000
next table: 22543
cur table: 27269
epoch: 1000
next table: 2134
cur table: 2226
epoch: 1000
next table: 22343
cur table: 22543
epoch: 1000
next table: 2167
cur table: 2134
epoch: 1000
next table: 21557
cur table: 22343
epoch: 1000
next table: 20034
cur table: 21557
epoch: 1000
next table: 2119
cur table: 2167
epoch: 1000
next table: 23918
cur table: 20034
epoch: 1000
next table: 23144
cur table: 23918
epoch: 1000
next table: 2331
cur table: 2119
epoch: 1000
next table: 19271
cur table: 23144
epoch: 1000
next table: 20763
cur table: 19271
epoch: 1000
next table: 2170
cur table: 2331
epoch: 1000
next table: 22683
cur table: 20763
epoch: 1000
next table: 20008
cur table: 22683
epoch: 1000
next table: 2126
cur table: 2170
epoch: 1000
next table: 19670
cur table: 20008
epoch: 1000
next table: 23353
cur table: 19670
epoch: 1000
next table: 2359
cur table: 2126
epoch: 1000
next table: 15447
cur table: 23353
epoch: 1000
next table: 20766
cur table: 15447
epoch: 1000
next table: 2265
cur table: 2359
epoch: 1000
next table: 21753
cur table: 20766
epoch: 1000
next table: 23542
cur table: 21753
epoch: 1000
next table: 2181
cur table: 2265
epoch: 1000
next table: 20304
cur table: 23542
epoch: 1000
next table: 2134
cur table: 2181
epoch: 1000
next table: 19366
cur table: 20304
Heartbeat CPU 0 instructions: 70000001 cycles: 41699246 heartbeat IPC: 0.855781 cumulative IPC: 0.856808 (Simulation time: 0 hr 39 min 17 sec) 
epoch: 1000
next table: 27763
cur table: 19366
epoch: 1000
next table: 2193
cur table: 2134
epoch: 1000
next table: 21376
cur table: 27763
epoch: 1000
next table: 23627
cur table: 21376
epoch: 1000
next table: 2224
cur table: 2193
epoch: 1000
next table: 22897
cur table: 23627
epoch: 1000
next table: 23455
cur table: 22897
epoch: 1000
next table: 2221
cur table: 2224
epoch: 1000
next table: 23280
cur table: 23455
epoch: 1000
next table: 2121
cur table: 2221
epoch: 1000
next table: 24328
cur table: 23280
epoch: 1000
next table: 19606
cur table: 24328
epoch: 1000
next table: 2177
cur table: 2121
epoch: 1000
next table: 22392
cur table: 19606
epoch: 1000
next table: 25000
cur table: 22392
epoch: 1000
next table: 2291
cur table: 2177
epoch: 1000
next table: 23574
cur table: 25000
epoch: 1000
next table: 18108
cur table: 23574
epoch: 1000
next table: 1993
cur table: 2291
epoch: 1000
next table: 26148
cur table: 18108
epoch: 1000
next table: 2175
cur table: 1993
epoch: 1000
next table: 23664
cur table: 26148
epoch: 1000
next table: 23303
cur table: 23664
epoch: 1000
next table: 2171
cur table: 2175
epoch: 1000
next table: 22764
cur table: 23303
epoch: 1000
next table: 21198
cur table: 22764
epoch: 1000
next table: 2184
cur table: 2171
epoch: 1000
next table: 19896
cur table: 21198
epoch: 1000
next table: 22822
cur table: 19896
epoch: 1000
next table: 2157
cur table: 2184
epoch: 1000
next table: 24103
cur table: 22822
epoch: 1000
next table: 15304
cur table: 24103
epoch: 1000
next table: 2268
cur table: 2157
epoch: 1000
next table: 19297
cur table: 15304
epoch: 1000
next table: 23052
cur table: 19297
epoch: 1000
next table: 2326
cur table: 2268
epoch: 1000
next table: 21979
cur table: 23052
epoch: 1000
next table: 18727
cur table: 21979
epoch: 1000
next table: 2213
cur table: 2326
epoch: 1000
next table: 17984
cur table: 18727
epoch: 1000
next table: 2316
cur table: 2213
epoch: 1000
next table: 23584
cur table: 17984
epoch: 1000
next table: 19293
cur table: 23584
epoch: 1000
next table: 19028
cur table: 19293
epoch: 1000
next table: 2213
cur table: 2316
epoch: 1000
next table: 19449
cur table: 19028
epoch: 1000
next table: 23965
cur table: 19449
epoch: 1000
next table: 2239
cur table: 2213
epoch: 1000
next table: 16928
cur table: 23965
epoch: 1000
next table: 21312
cur table: 16928
epoch: 1000
next table: 2191
cur table: 2239
epoch: 1000
next table: 23481
cur table: 21312
epoch: 1000
next table: 2314
cur table: 2191
epoch: 1000
next table: 19769
cur table: 23481
epoch: 1000
next table: 15216
cur table: 19769
epoch: 1000
next table: 19120
cur table: 15216
epoch: 1000
next table: 2285
cur table: 2314
epoch: 1000
next table: 21329
cur table: 19120
epoch: 1000
next table: 20783
cur table: 21329
epoch: 1000
next table: 2197
cur table: 2285
epoch: 1000
next table: 22195
cur table: 20783
epoch: 1000
next table: 2235
cur table: 2197
epoch: 1000
next table: 17794
cur table: 22195
epoch: 1000
next table: 21366
cur table: 17794
epoch: 1000
next table: 2275
cur table: 2235
epoch: 1000
next table: 20267
cur table: 21366
epoch: 1000
next table: 20511
cur table: 20267
epoch: 1000
next table: 2224
cur table: 2275
epoch: 1000
next table: 20149
cur table: 20511
epoch: 1000
next table: 19329
cur table: 20149
epoch: 1000
next table: 18791
cur table: 19329
epoch: 1000
next table: 2342
cur table: 2224
epoch: 1000
next table: 23143
cur table: 18791
epoch: 1000
next table: 2231
cur table: 2342
epoch: 1000
next table: 19848
cur table: 23143
epoch: 1000
next table: 19016
cur table: 19848
epoch: 1000
next table: 14313
cur table: 19016
epoch: 1000
next table: 2285
cur table: 2231
Heartbeat CPU 0 instructions: 80000001 cycles: 53381469 heartbeat IPC: 0.856001 cumulative IPC: 0.856539 (Simulation time: 0 hr 42 min 21 sec) 
epoch: 1000
next table: 20267
cur table: 14313
epoch: 1000
next table: 23975
cur table: 20267
epoch: 1000
next table: 2242
cur table: 2285
epoch: 1000
next table: 20058
cur table: 23975
epoch: 1000
next table: 2121
cur table: 2242
epoch: 1000
next table: 20254
cur table: 20058
epoch: 1000
next table: 18283
cur table: 20254
epoch: 1000
next table: 2295
cur table: 2121
epoch: 1000
next table: 23681
cur table: 18283
epoch: 1000
next table: 21170
cur table: 23681
epoch: 1000
next table: 2208
cur table: 2295
epoch: 1000
next table: 21574
cur table: 21170
epoch: 1000
next table: 20230
cur table: 21574
epoch: 1000
next table: 2166
cur table: 2208
epoch: 1000
next table: 20736
cur table: 20230
epoch: 1000
next table: 21154
cur table: 20736
epoch: 1000
next table: 2185
cur table: 2166
epoch: 1000
next table: 23661
cur table: 21154
epoch: 1000
next table: 21417
cur table: 23661
epoch: 1000
next table: 2258
cur table: 2185
epoch: 1000
next table: 15887
cur table: 21417
epoch: 1000
next table: 21684
cur table: 15887
epoch: 1000
next table: 2237
cur table: 2258
epoch: 1000
next table: 24322
cur table: 21684
epoch: 1000
next table: 18796
cur table: 24322
epoch: 1000
next table: 2232
cur table: 2237
epoch: 1000
next table: 22249
cur table: 18796
epoch: 1000
next table: 16811
cur table: 22249
epoch: 1000
next table: 2187
cur table: 2232
epoch: 1000
next table: 23607
cur table: 16811
epoch: 1000
next table: 21962
cur table: 23607
epoch: 1000
next table: 2239
cur table: 2187
epoch: 1000
next table: 20254
cur table: 21962
epoch: 1000
next table: 2173
cur table: 2239
epoch: 1000
next table: 20124
cur table: 20254
epoch: 1000
next table: 19409
cur table: 20124
epoch: 1000
next table: 2222
cur table: 2173
epoch: 1000
next table: 19538
cur table: 19409
epoch: 1000
next table: 23005
cur table: 19538
epoch: 1000
next table: 2130
cur table: 2222
epoch: 1000
next table: 23520
cur table: 23005
epoch: 1000
next table: 15991
cur table: 23520
epoch: 1000
next table: 2253
cur table: 2130
epoch: 1000
next table: 19105
cur table: 15991
epoch: 1000
next table: 23308
cur table: 19105
epoch: 1000
next table: 2215
cur table: 2253
epoch: 1000
next table: 19749
cur table: 23308
epoch: 1000
next table: 23748
cur table: 19749
epoch: 1000
next table: 2131
cur table: 2215
epoch: 1000
next table: 19857
cur table: 23748
epoch: 1000
next table: 23915
cur table: 19857
epoch: 1000
next table: 2149
cur table: 2131
epoch: 1000
next table: 23249
cur table: 23915
epoch: 1000
next table: 2208
cur table: 2149
epoch: 1000
next table: 23677
cur table: 23249
epoch: 1000
next table: 22431
cur table: 23677
epoch: 1000
next table: 2161
cur table: 2208
epoch: 1000
next table: 25823
cur table: 22431
epoch: 1000
next table: 23637
cur table: 25823
epoch: 1000
next table: 2165
cur table: 2161
epoch: 1000
next table: 27947
cur table: 23637
epoch: 1000
next table: 2124
cur table: 2165
epoch: 1000
next table: 18030
cur table: 27947
epoch: 1000
next table: 22126
cur table: 18030
epoch: 1000
next table: 2137
cur table: 2124
epoch: 1000
next table: 28487
cur table: 22126
epoch: 1000
next table: 27312
cur table: 28487
epoch: 1000
next table: 2154
cur table: 2137
epoch: 1000
next table: 19991
cur table: 27312
epoch: 1000
next table: 2161
cur table: 2154
epoch: 1000
next table: 25046
cur table: 19991
epoch: 1000
next table: 24561
cur table: 25046
epoch: 1000
next table: 2109
cur table: 2161
epoch: 1000
next table: 26140
cur table: 24561
Heartbeat CPU 0 instructions: 90000002 cycles: 65061028 heartbeat IPC: 0.856197 cumulative IPC: 0.856453 (Simulation time: 0 hr 44 min 27 sec) 
epoch: 1000
next table: 23308
cur table: 26140
epoch: 1000
next table: 2156
cur table: 2109
epoch: 1000
next table: 24771
cur table: 23308
epoch: 1000
next table: 2153
cur table: 2156
epoch: 1000
next table: 23826
cur table: 24771
epoch: 1000
next table: 27100
cur table: 23826
epoch: 1000
next table: 2139
cur table: 2153
epoch: 1000
next table: 17713
cur table: 27100
epoch: 1000
next table: 22822
cur table: 17713
epoch: 1000
next table: 2213
cur table: 2139
epoch: 1000
next table: 26074
cur table: 22822
epoch: 1000
next table: 2057
cur table: 2213
epoch: 1000
next table: 18905
cur table: 26074
epoch: 1000
next table: 24568
cur table: 18905
epoch: 1000
next table: 2183
cur table: 2057
epoch: 1000
next table: 21322
cur table: 24568
epoch: 1000
next table: 19541
cur table: 21322
epoch: 1000
next table: 2176
cur table: 2183
epoch: 1000
next table: 19190
cur table: 19541
epoch: 1000
next table: 23492
cur table: 19190
epoch: 1000
next table: 2212
cur table: 2176
epoch: 1000
next table: 22034
cur table: 23492
epoch: 1000
next table: 17111
cur table: 22034
epoch: 1000
next table: 2256
cur table: 2212
epoch: 1000
next table: 23416
cur table: 17111
epoch: 1000
next table: 23894
cur table: 23416
epoch: 1000
next table: 2148
cur table: 2256
epoch: 1000
next table: 19277
cur table: 23894
epoch: 1000
next table: 15386
cur table: 19277
epoch: 1000
next table: 2287
cur table: 2148
epoch: 1000
next table: 21270
cur table: 15386
epoch: 1000
next table: 25836
cur table: 21270
epoch: 1000
next table: 2207
cur table: 2287
epoch: 1000
next table: 18082
cur table: 25836
epoch: 1000
next table: 22480
cur table: 18082
epoch: 1000
next table: 2168
cur table: 2207
epoch: 1000
next table: 18415
cur table: 22480
epoch: 1000
next table: 23028
cur table: 18415
epoch: 1000
next table: 2286
cur table: 2168
epoch: 1000
next table: 19416
cur table: 23028
epoch: 1000
next table: 2234
cur table: 2286
epoch: 1000
next table: 23566
cur table: 19416
epoch: 1000
next table: 23072
cur table: 23566
epoch: 1000
next table: 2180
cur table: 2234
epoch: 1000
next table: 16489
cur table: 23072
epoch: 1000
next table: 22959
cur table: 16489
epoch: 1000
next table: 2231
cur table: 2180
epoch: 1000
next table: 23883
cur table: 22959
epoch: 1000
next table: 19322
cur table: 23883
epoch: 1000
next table: 2343
cur table: 2231
epoch: 1000
next table: 16163
cur table: 19322
epoch: 1000
next table: 18788
cur table: 16163
epoch: 1000
next table: 2188
cur table: 2343
epoch: 1000
next table: 25629
cur table: 18788
epoch: 1000
next table: 21371
cur table: 25629
epoch: 1000
next table: 2264
cur table: 2188
epoch: 1000
next table: 19544
cur table: 21371
epoch: 1000
next table: 20150
cur table: 19544
epoch: 1000
next table: 2225
cur table: 2264
epoch: 1000
next table: 23108
cur table: 20150
epoch: 1000
next table: 19102
cur table: 23108
epoch: 1000
next table: 2249
cur table: 2225
epoch: 1000
next table: 19920
cur table: 19102
epoch: 1000
next table: 27329
cur table: 19920
epoch: 1000
next table: 2185
cur table: 2249
epoch: 1000
next table: 15530
cur table: 27329
epoch: 1000
next table: 19457
cur table: 15530
epoch: 1000
next table: 2260
cur table: 2185
epoch: 1000
next table: 25851
cur table: 19457
epoch: 1000
next table: 21435
cur table: 25851
epoch: 1000
next table: 2271
cur table: 2260
epoch: 1000
next table: 18220
cur table: 21435
epoch: 1000
next table: 18744
cur table: 18220
epoch: 1000
next table: 2254
cur table: 2271
epoch: 1000
next table: 26091
cur table: 18744
epoch: 1000
next table: 2226
cur table: 2254
epoch: 1000
next table: 21287
cur table: 26091
epoch: 1000
next table: 24186
cur table: 21287
Heartbeat CPU 0 instructions: 100000000 cycles: 76694049 heartbeat IPC: 0.859622 cumulative IPC: 0.857085 (Simulation time: 0 hr 45 min 52 sec) 
Finished CPU 0 instructions: 50000000 cycles: 58337252 cumulative IPC: 0.857085 (Simulation time: 0 hr 45 min 52 sec) 

ChampSim completed all CPUs

Region of Interest Statistics

CPU 0 cumulative IPC: 0.857085 instructions: 50000000 cycles: 58337252
ITLB TOTAL     ACCESS:    6990480  HIT:    6990480  MISS:          0  HIT %:        100  MISS %:          0   MPKI: 0
ITLB LOAD TRANSLATION ACCESS:    6990480  HIT:    6990480  MISS:          0  HIT %:        100  MISS %:          0   MPKI: 0
ITLB PREFETCH  REQUESTED:          0  ISSUED:          0  USEFUL:          0  USELESS:          0
ITLB USEFUL LOAD PREFETCHES:          0 PREFETCH ISSUED TO LOWER LEVEL:          0  ACCURACY: -nan
ITLB TIMELY PREFETCHES:          0 LATE PREFETCHES: 0 DROPPED PREFETCHES: 0
ITLB PREFETCHES SAME FILL-ORIGIN LEVEL: 0 DIFFERENT FILL-ORIGIN LEVEL: 0
ITLB AVERAGE MISS LATENCY: -nan cycles
ITLB RQ	ACCESS:    8559694	FORWARD:          0	MERGED:    1569214	TO_CACHE:    6990480

Revised Interactions: positive negative neutral
ITLB_interactions 0 0 0 -nan -nan -nan
DTLB TOTAL     ACCESS:   15041779  HIT:   13149718  MISS:    1892061  HIT %:    87.4213  MISS %:    12.5787   MPKI: 37.8412
DTLB LOAD TRANSLATION ACCESS:   15041779  HIT:   13149718  MISS:    1892061  HIT %:    87.4213  MISS %:    12.5787   MPKI: 37.8412
DTLB PREFETCH  REQUESTED:          0  ISSUED:          0  USEFUL:          0  USELESS:          0
DTLB USEFUL LOAD PREFETCHES:          0 PREFETCH ISSUED TO LOWER LEVEL:          0  ACCURACY: -nan
DTLB TIMELY PREFETCHES:          0 LATE PREFETCHES: 0 DROPPED PREFETCHES: 0
DTLB PREFETCHES SAME FILL-ORIGIN LEVEL: 0 DIFFERENT FILL-ORIGIN LEVEL: 0
DTLB AVERAGE MISS LATENCY: 10.6075 cycles
DTLB RQ	ACCESS:   19739851	FORWARD:          0	MERGED:    4501764	TO_CACHE:   15238087

Revised Interactions: positive negative neutral
DTLB_interactions 0 0 0 -nan -nan -nan
STLB TOTAL     ACCESS:    1892061  HIT:    1890033  MISS:       2028  HIT %:    99.8928  MISS %:   0.107185   MPKI: 0.04056
STLB LOAD TRANSLATION ACCESS:    1892061  HIT:    1890033  MISS:       2028  HIT %:    99.8928  MISS %:   0.107185   MPKI: 0.04056
STLB PREFETCH  REQUESTED:          0  ISSUED:          0  USEFUL:          0  USELESS:          0
STLB USEFUL LOAD PREFETCHES:          0 PREFETCH ISSUED TO LOWER LEVEL:          0  ACCURACY: -nan
STLB TIMELY PREFETCHES:          0 LATE PREFETCHES: 0 DROPPED PREFETCHES: 0
STLB PREFETCHES SAME FILL-ORIGIN LEVEL: 0 DIFFERENT FILL-ORIGIN LEVEL: 0
STLB AVERAGE MISS LATENCY: 1158.55 cycles
STLB RQ	ACCESS:    1892061	FORWARD:          0	MERGED:          0	TO_CACHE:    1892061

Revised Interactions: positive negative neutral
STLB_interactions 0 0 0 -nan -nan -nan
STLB Hit, L1D data hit: 0
STLB Hit, L2C data hit: 0
STLB Hit, LLC data hit: 0
STLB Hit, LLC data miss: 0
STLB STLB hints to L2: 0
L1D TOTAL     ACCESS:   19637880  HIT:   15973650  MISS:    3664230  HIT %:     81.341  MISS %:     18.659   MPKI: 73.2846
L1D LOAD      ACCESS:   15684976  HIT:   12322026  MISS:    3362950  HIT %:    78.5594  MISS %:    21.4406   MPKI: 67.259
L1D RFO       ACCESS:    3952904  HIT:    3651624  MISS:     301280  HIT %:    92.3783  MISS %:    7.62174   MPKI: 6.0256
L1D PREFETCH  REQUESTED:          0  ISSUED:          0  USEFUL:          0  USELESS:          0
L1D USEFUL LOAD PREFETCHES:          0 PREFETCH ISSUED TO LOWER LEVEL:          0  ACCURACY: -nan
L1D TIMELY PREFETCHES:          0 LATE PREFETCHES: 0 DROPPED PREFETCHES: 0
L1D PREFETCHES SAME FILL-ORIGIN LEVEL: 0 DIFFERENT FILL-ORIGIN LEVEL: 0
L1D AVERAGE MISS LATENCY: 27.0447 cycles
L1D RQ	ACCESS:   19350220	FORWARD:          0	MERGED:    3574195	TO_CACHE:   15763016
L1D WQ	ACCESS:    4003918	FORWARD:      13009	MERGED:      27083	TO_CACHE:    3976835

Revised Interactions: positive negative neutral
L1D_interactions 0 0 0 -nan -nan -nan
L1D UNIQUE REGIONS ACCESSED: 0
L1D REGIONS CONFLICTS: 0
L1D Cross Page Prefetch Requests: 0
L1D Same Page Prefetch Requests: 0
L1D ROI Sum of L1D PQ occupancy: 0
L1D PREFETCHES PUSHED FROM L2C: 0
L1I TOTAL     ACCESS:    7824911  HIT:    6378814  MISS:    1446097  HIT %:    81.5193  MISS %:    18.4807   MPKI: 28.9219
L1I LOAD      ACCESS:    7824911  HIT:    6378814  MISS:    1446097  HIT %:    81.5193  MISS %:    18.4807   MPKI: 28.9219
L1I PREFETCH  REQUESTED:          0  ISSUED:          0  USEFUL:          0  USELESS:          0
L1I USEFUL LOAD PREFETCHES:          0 PREFETCH ISSUED TO LOWER LEVEL:          0  ACCURACY: -nan
L1I TIMELY PREFETCHES:          0 LATE PREFETCHES: 0 DROPPED PREFETCHES: 0
L1I PREFETCHES SAME FILL-ORIGIN LEVEL: 0 DIFFERENT FILL-ORIGIN LEVEL: 0
L1I AVERAGE MISS LATENCY: 14.0649 cycles
L1I RQ	ACCESS:   11906814	FORWARD:          0	MERGED:    3347120	TO_CACHE:    8559694

Revised Interactions: positive negative neutral
L1I_interactions 0 0 0 -nan -nan -nan
BTB TOTAL     ACCESS:     280232  HIT:     262131  MISS:      18101  HIT %:    93.5407  MISS %:    6.45929   MPKI: 0.36202
BTB BRANCH_DIRECT_JUMP	ACCESS:      54228  HIT:      54223  MISS:          5
BTB BRANCH_INDIRECT	ACCESS:       9038  HIT:       9037  MISS:          1
BTB BRANCH_CONDITIONAL	ACCESS:     108510  HIT:     108499  MISS:         11
BTB BRANCH_DIRECT_CALL	ACCESS:      54228  HIT:      54223  MISS:          5
BTB BRANCH_INDIRECT_CALL	ACCESS:          0  HIT:          0  MISS:          0
BTB BRANCH_RETURN	ACCESS:      54228  HIT:      36149  MISS:      18079
BTB BRANCH_OTHER ACCESS:          0  HIT:          0  MISS:          0

L2C TOTAL     ACCESS:    6112729  HIT:    5864691  MISS:     248038  HIT %:    95.9423  MISS %:    4.05773   MPKI: 4.96076
L2C LOAD      ACCESS:    4808584  HIT:    4681396  MISS:     127188  HIT %:     97.355  MISS %:    2.64502   MPKI: 2.54376
L2C DATA LOAD MPKI: 2.54296
L2C INSTRUCTION LOAD MPKI: 0.0008
L2C RFO       ACCESS:     300994  HIT:     268336  MISS:      32658  HIT %:    89.1499  MISS %:    10.8501   MPKI: 0.65316
L2C PREFETCH  ACCESS:     675325  HIT:     591184  MISS:      84141  HIT %:    87.5407  MISS %:    12.4593   MPKI: 1.68282
L2C DATA PREFETCH MPKI: 1.68282
L2C INSTRUCTION PREFETCH MPKI: 0
L2C WRITEBACK ACCESS:     324763  HIT:     323727  MISS:       1036  HIT %:     99.681  MISS %:   0.319002   MPKI: 0.02072
L2C LOAD TRANSLATION ACCESS:       3063  HIT:         48  MISS:       3015  HIT %:    1.56709  MISS %:    98.4329   MPKI: 0.0603
L2C PREFETCH  REQUESTED:     676732  ISSUED:     676732  USEFUL:      76489  USELESS:       7611
L2C USEFUL LOAD PREFETCHES:      76489 PREFETCH ISSUED TO LOWER LEVEL:      84818  ACCURACY: 90.1802
L2C TIMELY PREFETCHES:      76489 LATE PREFETCHES: 677 DROPPED PREFETCHES: 0
L2C PREFETCHES SAME FILL-ORIGIN LEVEL: 84818 DIFFERENT FILL-ORIGIN LEVEL: 0
L2C AVERAGE MISS LATENCY: 199.179 cycles
L2C RQ	ACCESS:    5113391	FORWARD:          0	MERGED:          0	TO_CACHE:    5112641
L2C WQ	ACCESS:     324763	FORWARD:        756	MERGED:          0	TO_CACHE:     324763
L2C PQ	ACCESS:     676732	FORWARD:          0	MERGED:         12	TO_CACHE:     676714

Revised Interactions: positive negative neutral
L2C_interactions 65340 15631 5946 75.1752 17.9838 6.84101
L2C Instructions Evicting Data 35
L2C Translations Evicting Data 2978
L2C Data Evicting Data 240909
L2C Instructions Evicting Instructions 5
L2C Translations Evicting Instructions 0
L2C Data Evicting Instructions 35
L2C Instructions Evicting Translations 0
L2C Translations Evicting Translations 37
L2C Data Evicting Translations 3003
L2C Dense regions hint from L2: 0
PSCL5 TOTAL     ACCESS:       2028  HIT:       2028  MISS:          0  HIT %:        100  MISS %:          0   MPKI: 0
PSCL5 LOAD TRANSLATION ACCESS:       2028  HIT:       2028  MISS:          0  HIT %:        100  MISS %:          0   MPKI: 0
PSCL5 PREFETCH  REQUESTED:          0  ISSUED:          0  USEFUL:          0  USELESS:          0
PSCL5 USEFUL LOAD PREFETCHES:          0 PREFETCH ISSUED TO LOWER LEVEL:          0  ACCURACY: -nan
PSCL5 TIMELY PREFETCHES:          0 LATE PREFETCHES: 0 DROPPED PREFETCHES: 0
PSCL5 PREFETCHES SAME FILL-ORIGIN LEVEL: 0 DIFFERENT FILL-ORIGIN LEVEL: 0

Revised Interactions: positive negative neutral
PSCL5_interactions 0 0 0 -nan -nan -nan
PSCL4 TOTAL     ACCESS:       2028  HIT:       2028  MISS:          0  HIT %:        100  MISS %:          0   MPKI: 0
PSCL4 LOAD TRANSLATION ACCESS:       2028  HIT:       2028  MISS:          0  HIT %:        100  MISS %:          0   MPKI: 0
PSCL4 PREFETCH  REQUESTED:          0  ISSUED:          0  USEFUL:          0  USELESS:          0
PSCL4 USEFUL LOAD PREFETCHES:          0 PREFETCH ISSUED TO LOWER LEVEL:          0  ACCURACY: -nan
PSCL4 TIMELY PREFETCHES:          0 LATE PREFETCHES: 0 DROPPED PREFETCHES: 0
PSCL4 PREFETCHES SAME FILL-ORIGIN LEVEL: 0 DIFFERENT FILL-ORIGIN LEVEL: 0

Revised Interactions: positive negative neutral
PSCL4_interactions 0 0 0 -nan -nan -nan
PSCL3 TOTAL     ACCESS:       2028  HIT:       2028  MISS:          0  HIT %:        100  MISS %:          0   MPKI: 0
PSCL3 LOAD TRANSLATION ACCESS:       2028  HIT:       2028  MISS:          0  HIT %:        100  MISS %:          0   MPKI: 0
PSCL3 PREFETCH  REQUESTED:          0  ISSUED:          0  USEFUL:          0  USELESS:          0
PSCL3 USEFUL LOAD PREFETCHES:          0 PREFETCH ISSUED TO LOWER LEVEL:          0  ACCURACY: -nan
PSCL3 TIMELY PREFETCHES:          0 LATE PREFETCHES: 0 DROPPED PREFETCHES: 0
PSCL3 PREFETCHES SAME FILL-ORIGIN LEVEL: 0 DIFFERENT FILL-ORIGIN LEVEL: 0

Revised Interactions: positive negative neutral
PSCL3_interactions 0 0 0 -nan -nan -nan
PSCL2 TOTAL     ACCESS:       2028  HIT:        989  MISS:       1039  HIT %:    48.7673  MISS %:    51.2327   MPKI: 0.02078
PSCL2 LOAD TRANSLATION ACCESS:       2028  HIT:        989  MISS:       1039  HIT %:    48.7673  MISS %:    51.2327   MPKI: 0.02078
PSCL2 PREFETCH  REQUESTED:          0  ISSUED:          0  USEFUL:          0  USELESS:          0
PSCL2 USEFUL LOAD PREFETCHES:          0 PREFETCH ISSUED TO LOWER LEVEL:          0  ACCURACY: -nan
PSCL2 TIMELY PREFETCHES:          0 LATE PREFETCHES: 0 DROPPED PREFETCHES: 0
PSCL2 PREFETCHES SAME FILL-ORIGIN LEVEL: 0 DIFFERENT FILL-ORIGIN LEVEL: 0

Revised Interactions: positive negative neutral
PSCL2_interactions 0 0 0 -nan -nan -nan
LLC TOTAL     ACCESS:     279383  HIT:     130210  MISS:     149173  HIT %:    46.6063  MISS %:    53.3937   MPKI: 2.98346
LLC LOAD      ACCESS:     126506  HIT:      48310  MISS:      78196  HIT %:    38.1879  MISS %:    61.8121   MPKI: 1.56392
LLC RFO       ACCESS:      32249  HIT:       2995  MISS:      29254  HIT %:    9.28711  MISS %:    90.7129   MPKI: 0.58508
LLC PREFETCH  ACCESS:      84816  HIT:      59359  MISS:      25457  HIT %:    69.9856  MISS %:    30.0144   MPKI: 0.50914
LLC WRITEBACK ACCESS:      32797  HIT:      18278  MISS:      14519  HIT %:    55.7307  MISS %:    44.2693   MPKI: 0.29038
LLC LOAD TRANSLATION ACCESS:       3015  HIT:       1268  MISS:       1747  HIT %:    42.0564  MISS %:    57.9436   MPKI: 0.03494
LLC PREFETCH  REQUESTED:          0  ISSUED:          0  USEFUL:      10183  USELESS:      16596
LLC USEFUL LOAD PREFETCHES:      10183 PREFETCH ISSUED TO LOWER LEVEL:      25457  ACCURACY: 40.0008
LLC TIMELY PREFETCHES:      10183 LATE PREFETCHES: 0 DROPPED PREFETCHES: 0
LLC PREFETCHES SAME FILL-ORIGIN LEVEL: 0 DIFFERENT FILL-ORIGIN LEVEL: 0
LLC AVERAGE MISS LATENCY: 280.821 cycles
LLC RQ	ACCESS:     162184	FORWARD:          0	MERGED:          0	TO_CACHE:     161770
LLC WQ	ACCESS:      32797	FORWARD:        416	MERGED:          0	TO_CACHE:      32797
LLC PQ	ACCESS:      84818	FORWARD:          0	MERGED:          0	TO_CACHE:      84816

Revised Interactions: positive negative neutral
LLC_interactions 1118 24665 10865 3.05064 67.3024 29.6469
LLC Dense regions hint to LLC: 0

RAW hits: 109511
Loads Generated: 19459731
Loads sent to L1D: 19350220
Stores Generated: 4004020
Stores sent to L1D: 4004023
Major fault: 0 Minor fault: 4562
Allocated PAGES: 4562
[Bingo] PHT Access: 1215420
[Bingo] PHT Hit PC+Addr: 58240
[Bingo] PHT Hit PC+Offs: 134469
[Bingo] PHT Miss: 1022711
[Bingo] Prefetch PC+Addr: 0
[Bingo] Prefetch PC+Offs: 0
[Bingo] Useful PC+Addr: 0
[Bingo] Useful PC+Offs: 0
[Bingo] Useless PC+Addr: 0
[Bingo] Useless PC+Offs: 0
[Bingo] L1 Prefetch per Region: 0
[Bingo] L2 Prefetch per Region: 4.68731
[Bingo] L3 Prefetch per Region: 0
[Bingo] No Prefetch per Region: 27.3127
[Bingo] Number of Voters Mean: 3.66684
[Bingo] Number of Voters SD: 4.72375
PHT read accesses: 18558665
PHT write accesses: 111749
AT read accesses: 2196963
AT write accesses: 2254855
FT read accesses: 377517
FT write accesses: 1215420
PS read accesses: 394860
PS write accesses: 192709
PHT tag read accesses: 21992043
PHT tag write accesses: 169989
AT tag read accesses: 62712931
AT tag write accesses: 2308716
FT tag read accesses: 64853421
FT tag write accesses: 1477220
PS tag read accesses: 60122972
PS tag write accesses: 583099

DRAM Statistics
 CHANNEL 0
 RQ ROW_BUFFER_HIT:      73206  ROW_BUFFER_MISS:      61448
 DBUS_CONGESTED:         92
 WQ ROW_BUFFER_HIT:      12123  ROW_BUFFER_MISS:      19201  FULL:          0

 AVG_CONGESTED_CYCLE: 4
 All warmup complete: 2
Channel 0 Bank busy for read cycles: 0
Channel 0 Bank busy for write cycles: 0
Channel 0
Rank 0
0banks busy for read cycles: 47450776
0banks busy for write cycles: 9953
1banks busy for read cycles: 5643224
1banks busy for write cycles: 1670887
2banks busy for read cycles: 1141167
2banks busy for write cycles: 576620
3banks busy for read cycles: 558437
3banks busy for write cycles: 278900
4banks busy for read cycles: 221700
4banks busy for write cycles: 127237
5banks busy for read cycles: 174470
5banks busy for write cycles: 102407
6banks busy for read cycles: 93769
6banks busy for write cycles: 80171
7banks busy for read cycles: 58622
7banks busy for write cycles: 45386
8banks busy for read cycles: 68384
8banks busy for write cycles: 35143

CPU 0 Branch Prediction Accuracy: 99.9878% MPKI: 0.00108 Average ROB Occupancy at Mispredict: 28.3889
Branch types
NOT_BRANCH: 49556760 99.1135%
BRANCH_DIRECT_JUMP: 54228 0.108456%
BRANCH_INDIRECT: 9038 0.018076%
BRANCH_CONDITIONAL: 271248 0.542496%
BRANCH_DIRECT_CALL: 54228 0.108456%
BRANCH_INDIRECT_CALL: 0 0%
BRANCH_RETURN: 54228 0.108456%
BRANCH_OTHER: 0 0%

@sumon_overall_L1D         0         0         0         0         0         0         0
@Sumon_Early_by_class_L1D         0         0         0         0
@Sumon_Late_by_class_L1D         0         0         0         0

@Sumon_Early_by_cycle_L1D         0         0         0         0         0         0         0         0         0         0         0         0
@Sumon_Late_by_cycle_L1D         0         0         0         0         0         0
@Sumon_Early_stream_L1D         0         0         0         0         0         0         0         0         0         0         0         0
@Sumon_Early_CS_L1D         0         0         0         0         0         0         0         0         0         0         0         0
@Sumon_Early_CPLX_L1D         0         0         0         0         0         0         0         0         0         0         0         0
@Sumon_Late_stream_L1D         0         0         0         0         0         0
@Sumon_Late_CS_L1D         0         0         0         0         0         0
@Sumon_Late_CPLX_L1D         0         0         0         0         0         0
@sumon_overall_L2C     76489       677         0      7611     84141    676732    676732
@Sumon_Early_by_class_L2C         0         0         0         0
@Sumon_Late_by_class_L2C         0         0         0         0

@Sumon_Early_by_cycle_L2C       684       326        82        11        15        72        11      1548      6381     15545     18797     33017
@Sumon_Late_by_cycle_L2C       146       270       108        41       112         0
@Sumon_Early_stream_L2C         0         0         0         0         0         0         0         0         0         0         0         0
@Sumon_Early_CS_L2C         0         0         0         0         0         0         0         0         0         0         0         0
@Sumon_Early_CPLX_L2C         0         0         0         0         0         0         0         0         0         0         0         0
@Sumon_Late_stream_L2C         0         0         0         0         0         0
@Sumon_Late_CS_L2C         0         0         0         0         0         0
@Sumon_Late_CPLX_L2C         0         0         0         0         0         0
DRAM PAGES: 1048576
Allocated PAGES: 4562
