
*** ChampSim Multicore Out-of-Order Simulator ***

Warmup Instructions: 50000000
Simulation Instructions: 50000000
Number of CPUs: 1
LLC sets: 2048
LLC ways: 16
Off-chip DRAM Size: 4096 MB Channels: 1 Width: 64-bit Data Rate: 6400 MT/s
CPU 0 runs ../../biswa/SPEC2017Traces/619.lbm_s-3766B.champsimtrace.xz
.xz
CPU 0 Bimodal branch predictor
BTB has LRU replacement policy
ITLB has LRU replacement policy
DTLB has LRU replacement policy
STLB has LRU replacement policy
L1I has LRU replacement policy
L1D has LRU replacement policy
Bingo PHT WAYS: 16 and PHT_SIZE: 16384
Initialize DRRIP state for L2C
Initialize Hawkeye state
epoch: 1000
next table: 2774
cur table: 13552
epoch: 1000
next table: 2676
cur table: 2774
epoch: 1000
next table: 2690
cur table: 2676
epoch: 1000
next table: 2616
cur table: 2690
epoch: 1000
next table: 2594
cur table: 2616
epoch: 1000
next table: 2573
cur table: 2594
epoch: 1000
next table: 2618
cur table: 2573
epoch: 1000
next table: 2615
cur table: 2618
epoch: 1000
next table: 2597
cur table: 2615
epoch: 1000
next table: 2663
cur table: 2597
epoch: 1000
next table: 2640
cur table: 2663
epoch: 1000
next table: 2621
cur table: 2640
epoch: 1000
next table: 2612
cur table: 2621
epoch: 1000
next table: 2524
cur table: 2612
epoch: 1000
next table: 2441
cur table: 2524
epoch: 1000
next table: 2390
cur table: 2441
epoch: 1000
next table: 2540
cur table: 2390
epoch: 1000
next table: 2560
cur table: 2540
epoch: 1000
next table: 2549
cur table: 2560
epoch: 1000
next table: 2518
cur table: 2549
epoch: 1000
next table: 2630
cur table: 2518
epoch: 1000
next table: 2583
cur table: 2630
epoch: 1000
next table: 2678
cur table: 2583
epoch: 1000
next table: 2651
cur table: 2678
epoch: 1000
next table: 2583
cur table: 2651
epoch: 1000
next table: 2611
cur table: 2583
epoch: 1000
next table: 2483
cur table: 27419
epoch: 1000
next table: 2549
cur table: 2611
epoch: 1000
next table: 1932
cur table: 2483
epoch: 1000
next table: 2601
cur table: 2549
epoch: 1000
next table: 1907
cur table: 1932
epoch: 1000
next table: 2591
cur table: 2601
epoch: 1000
next table: 1820
cur table: 1907
epoch: 1000
next table: 2592
cur table: 2591
epoch: 1000
next table: 1807
cur table: 1820
epoch: 1000
next table: 2609
cur table: 2592
epoch: 1000
next table: 1813
cur table: 1807
epoch: 1000
next table: 2542
cur table: 2609
epoch: 1000
next table: 1828
cur table: 1813
epoch: 1000
next table: 2565
cur table: 2542
epoch: 1000
next table: 2591
cur table: 2565
epoch: 1000
next table: 1826
cur table: 1828
epoch: 1000
next table: 2557
cur table: 2591
epoch: 1000
next table: 1812
cur table: 1826
epoch: 1000
next table: 2656
cur table: 2557
epoch: 1000
next table: 1760
cur table: 1812
epoch: 1000
next table: 2682
cur table: 2656
epoch: 1000
next table: 1755
cur table: 1760
epoch: 1000
next table: 2675
cur table: 2682
epoch: 1000
next table: 1789
cur table: 1755
epoch: 1000
next table: 2637
cur table: 2675
epoch: 1000
next table: 1770
cur table: 1789
epoch: 1000
next table: 2646
cur table: 2637
epoch: 1000
next table: 1772
cur table: 1770
epoch: 1000
next table: 2650
cur table: 2646
epoch: 1000
next table: 1786
cur table: 1772
epoch: 1000
next table: 2517
cur table: 2650
epoch: 1000
next table: 1815
cur table: 1786
epoch: 1000
next table: 2647
cur table: 2517
epoch: 1000
next table: 1792
cur table: 1815
epoch: 1000
next table: 2608
cur table: 2647
epoch: 1000
next table: 1795
cur table: 1792
epoch: 1000
next table: 2631
cur table: 2608
epoch: 1000
next table: 1780
cur table: 1795
epoch: 1000
next table: 2629
cur table: 2631
epoch: 1000
next table: 1767
cur table: 1780
epoch: 1000
next table: 2614
cur table: 2629
epoch: 1000
next table: 1777
cur table: 1767
epoch: 1000
next table: 2598
cur table: 2614
epoch: 1000
next table: 1846
cur table: 1777
epoch: 1000
next table: 2545
cur table: 2598
epoch: 1000
next table: 1855
cur table: 1846
epoch: 1000
next table: 2508
cur table: 2545
epoch: 1000
next table: 1806
cur table: 1855
epoch: 1000
next table: 2637
cur table: 2508
epoch: 1000
next table: 1782
cur table: 1806
epoch: 1000
next table: 2628
cur table: 2637
epoch: 1000
next table: 1763
cur table: 1782
epoch: 1000
next table: 2653
cur table: 2628
epoch: 1000
next table: 1771
cur table: 1763
epoch: 1000
next table: 2679
cur table: 2653
epoch: 1000
next table: 1767
cur table: 1771
epoch: 1000
next table: 2687
cur table: 2679
epoch: 1000
next table: 1756
cur table: 1767
epoch: 1000
next table: 2643
cur table: 2687
epoch: 1000
next table: 1759
cur table: 1756
epoch: 1000
next table: 2642
cur table: 2643
epoch: 1000
next table: 1765
cur table: 1759
epoch: 1000
next table: 2641
cur table: 2642
epoch: 1000
next table: 1795
cur table: 1765
epoch: 1000
next table: 2655
cur table: 2641
epoch: 1000
next table: 1807
cur table: 1795
epoch: 1000
next table: 2627
cur table: 2655
epoch: 1000
next table: 1768
cur table: 1807
epoch: 1000
next table: 2645
cur table: 2627
epoch: 1000
next table: 1755
cur table: 1768
epoch: 1000
next table: 2685
cur table: 2645
epoch: 1000
next table: 1760
cur table: 1755
epoch: 1000
next table: 2683
cur table: 2685
epoch: 1000
next table: 1776
cur table: 1760
epoch: 1000
next table: 2646
cur table: 2683
epoch: 1000
next table: 1763
cur table: 1776
epoch: 1000
next table: 2646
cur table: 2646
epoch: 1000
next table: 1758
cur table: 1763
epoch: 1000
next table: 2653
cur table: 2646
epoch: 1000
next table: 1755
cur table: 1758
epoch: 1000
next table: 2684
cur table: 2653
epoch: 1000
next table: 1762
cur table: 1755
epoch: 1000
next table: 2680
cur table: 2684
epoch: 1000
next table: 1782
cur table: 1762
epoch: 1000
next table: 2647
cur table: 2680
epoch: 1000
next table: 1758
cur table: 1782
epoch: 1000
next table: 2648
cur table: 2647
epoch: 1000
next table: 1757
cur table: 1758
epoch: 1000
next table: 2650
cur table: 2648
epoch: 1000
next table: 1756
cur table: 1757
epoch: 1000
next table: 2686
cur table: 2650
epoch: 1000
next table: 1764
cur table: 1756
epoch: 1000
next table: 2683
cur table: 2686
epoch: 1000
next table: 1778
cur table: 1764
epoch: 1000
next table: 2642
cur table: 2683
epoch: 1000
next table: 1760
cur table: 1778
epoch: 1000
next table: 2651
cur table: 2642
epoch: 1000
next table: 1757
cur table: 1760
epoch: 1000
next table: 2648
cur table: 2651
epoch: 1000
next table: 1756
cur table: 1757
epoch: 1000
next table: 2685
cur table: 2648
epoch: 1000
next table: 1774
cur table: 1756
epoch: 1000
next table: 2642
cur table: 2685
epoch: 1000
next table: 1791
cur table: 1774
epoch: 1000
next table: 2628
cur table: 2642
epoch: 1000
next table: 1764
cur table: 1791
epoch: 1000
next table: 2659
cur table: 2628
epoch: 1000
next table: 1765
cur table: 1764
epoch: 1000
next table: 2676
cur table: 2659
epoch: 1000
next table: 1761
cur table: 1765
epoch: 1000
next table: 2643
cur table: 2676
epoch: 1000
next table: 1770
cur table: 1761
epoch: 1000
next table: 2650
cur table: 2643
epoch: 1000
next table: 1770
cur table: 1770
epoch: 1000
next table: 2648
cur table: 2650
epoch: 1000
next table: 1775
cur table: 1770
epoch: 1000
next table: 2661
cur table: 2648
epoch: 1000
next table: 1800
cur table: 1775
epoch: 1000
next table: 2548
cur table: 2661
epoch: 1000
next table: 1785
cur table: 1800
epoch: 1000
next table: 2665
cur table: 2548
epoch: 1000
next table: 1797
cur table: 1785
epoch: 1000
next table: 2571
cur table: 2665
epoch: 1000
next table: 1846
cur table: 1797
epoch: 1000
next table: 2573
cur table: 2571
epoch: 1000
next table: 1815
cur table: 1846
epoch: 1000
next table: 2558
cur table: 2573
epoch: 1000
next table: 1756
cur table: 1815
epoch: 1000
next table: 2680
cur table: 2558
epoch: 1000
next table: 1757
cur table: 1756
epoch: 1000
next table: 2646
cur table: 2680
epoch: 1000
next table: 1774
cur table: 1757
epoch: 1000
next table: 2644
cur table: 2646
epoch: 1000
next table: 1774
cur table: 1774
epoch: 1000
next table: 2650
cur table: 2644
epoch: 1000
next table: 1757
cur table: 1774
epoch: 1000
next table: 2689
cur table: 2650
epoch: 1000
next table: 1767
cur table: 1757
epoch: 1000
next table: 2653
cur table: 2689
epoch: 1000
next table: 1773
cur table: 1767
epoch: 1000
next table: 2605
cur table: 2653
epoch: 1000
next table: 1788
cur table: 1773
epoch: 1000
next table: 2652
cur table: 2605
epoch: 1000
next table: 1773
cur table: 1788
epoch: 1000
next table: 2690
cur table: 2652
epoch: 1000
next table: 1758
cur table: 1773
epoch: 1000
next table: 2651
cur table: 2690
epoch: 1000
next table: 1756
cur table: 1758
epoch: 1000
next table: 2638
cur table: 2651
epoch: 1000
next table: 1759
cur table: 1756
epoch: 1000
next table: 2650
cur table: 2638
epoch: 1000
next table: 1778
cur table: 1759
epoch: 1000
next table: 2679
cur table: 2650
epoch: 1000
next table: 1765
cur table: 1778
epoch: 1000
next table: 2683
cur table: 2679
epoch: 1000
next table: 1755
cur table: 1765
epoch: 1000
next table: 2649
cur table: 2683
epoch: 1000
next table: 1756
cur table: 1755
epoch: 1000
next table: 2648
cur table: 2649
epoch: 1000
next table: 1763
cur table: 1756
epoch: 1000
next table: 2648
cur table: 2648
epoch: 1000
next table: 1773
cur table: 1763
epoch: 1000
next table: 2695
cur table: 2648
epoch: 1000
next table: 1768
cur table: 1773
epoch: 1000
next table: 2671
cur table: 2695
epoch: 1000
next table: 1759
cur table: 1768
epoch: 1000
next table: 2646
cur table: 2671
epoch: 1000
next table: 1758
cur table: 1759
epoch: 1000
next table: 2639
cur table: 2646
epoch: 1000
next table: 1775
cur table: 1758
epoch: 1000
next table: 2649
cur table: 2639
epoch: 1000
next table: 1776
cur table: 1775
epoch: 1000
next table: 2682
cur table: 2649
epoch: 1000
next table: 1779
cur table: 1776
epoch: 1000
next table: 2623
cur table: 2682
epoch: 1000
next table: 1756
cur table: 1779
epoch: 1000
next table: 2654
cur table: 2623
epoch: 1000
next table: 1759
cur table: 1756
epoch: 1000
next table: 2661
cur table: 2654
epoch: 1000
next table: 1764
cur table: 1759
epoch: 1000
next table: 2692
cur table: 2661
epoch: 1000
next table: 1775
cur table: 1764
epoch: 1000
next table: 2644
cur table: 2692
epoch: 1000
next table: 1768
cur table: 1775
epoch: 1000
next table: 2642
cur table: 2644
epoch: 1000
next table: 1758
cur table: 1768
epoch: 1000
next table: 2652
cur table: 2642
epoch: 1000
next table: 1759
cur table: 1758
epoch: 1000
next table: 2673
cur table: 2652
epoch: 1000
next table: 1764
cur table: 1759
epoch: 1000
next table: 2674
cur table: 2673
epoch: 1000
next table: 1805
cur table: 1764
epoch: 1000
next table: 2587
cur table: 2674
epoch: 1000
next table: 1797
cur table: 1805
epoch: 1000
next table: 2601
cur table: 2587
epoch: 1000
next table: 1774
cur table: 1797
epoch: 1000
next table: 2599
cur table: 2601
epoch: 1000
next table: 2634
cur table: 2599
epoch: 1000
next table: 1794
cur table: 1774
epoch: 1000
next table: 2663
cur table: 2634
epoch: 1000
next table: 1771
cur table: 1794
epoch: 1000
next table: 2647
cur table: 2663
epoch: 1000
next table: 1757
cur table: 1771
epoch: 1000
next table: 2649
cur table: 2647
epoch: 1000
next table: 1757
cur table: 1757
epoch: 1000
next table: 2671
cur table: 2649
epoch: 1000
next table: 1759
cur table: 1757
epoch: 1000
next table: 2681
cur table: 2671
epoch: 1000
next table: 1770
cur table: 1759
epoch: 1000
next table: 2652
cur table: 2681
epoch: 1000
next table: 1775
cur table: 1770
epoch: 1000
next table: 2643
cur table: 2652
epoch: 1000
next table: 1758
cur table: 1775
epoch: 1000
next table: 2647
cur table: 2643
epoch: 1000
next table: 1759
cur table: 1758
epoch: 1000
next table: 2677
cur table: 2647
epoch: 1000
next table: 1759
cur table: 1759
epoch: 1000
next table: 2680
cur table: 2677
epoch: 1000
next table: 1773
cur table: 1759
epoch: 1000
next table: 2647
cur table: 2680
epoch: 1000
next table: 1774
cur table: 1773
epoch: 1000
next table: 2648
cur table: 2647
epoch: 1000
next table: 1757
cur table: 1774
epoch: 1000
next table: 2646
cur table: 2648
epoch: 1000
next table: 1758
cur table: 1757
epoch: 1000
next table: 2690
cur table: 2646
epoch: 1000
next table: 1756
cur table: 1758
epoch: 1000
next table: 2678
cur table: 2690
epoch: 1000
next table: 1771
cur table: 1756
epoch: 1000
next table: 2646
cur table: 2678
epoch: 1000
next table: 1772
cur table: 1771
epoch: 1000
next table: 2649
cur table: 2646
epoch: 1000
next table: 1756
cur table: 1772
epoch: 1000
next table: 2657
cur table: 2649
epoch: 1000
next table: 1755
cur table: 1756
epoch: 1000
next table: 2680
cur table: 2657
epoch: 1000
next table: 1758
cur table: 1755
epoch: 1000
next table: 2680
cur table: 2680
epoch: 1000
next table: 1780
cur table: 1758
epoch: 1000
next table: 2645
cur table: 2680
epoch: 1000
next table: 1766
cur table: 1780
epoch: 1000
next table: 2652
cur table: 2645
epoch: 1000
next table: 1758
cur table: 1766
epoch: 1000
next table: 2653
cur table: 2652
epoch: 1000
next table: 1756
cur table: 1758
epoch: 1000
next table: 2685
cur table: 2653
epoch: 1000
next table: 1757
cur table: 1756
epoch: 1000
next table: 2672
cur table: 2685
epoch: 1000
next table: 1780
cur table: 1757
epoch: 1000
next table: 2648
cur table: 2672
epoch: 1000
next table: 1764
cur table: 1780
epoch: 1000
next table: 2649
cur table: 2648
epoch: 1000
next table: 1755
cur table: 1764
epoch: 1000
next table: 2659
cur table: 2649
epoch: 1000
next table: 1756
cur table: 1755
epoch: 1000
next table: 2691
cur table: 2659
epoch: 1000
next table: 1757
cur table: 1756
epoch: 1000
next table: 2647
cur table: 2691
epoch: 1000
next table: 1786
cur table: 1757
epoch: 1000
next table: 2632
cur table: 2647
epoch: 1000
next table: 1774
cur table: 1786
epoch: 1000
next table: 2642
cur table: 2632
epoch: 1000
next table: 1757
cur table: 1774
epoch: 1000
next table: 2684
cur table: 2642
epoch: 1000
next table: 1762
cur table: 1757
epoch: 1000
next table: 2615
cur table: 2684
epoch: 1000
next table: 1791
cur table: 1762
epoch: 1000
next table: 2596
cur table: 2615
epoch: 1000
next table: 1802
cur table: 1791
epoch: 1000
next table: 2680
cur table: 2596
epoch: 1000
next table: 1775
cur table: 1802
epoch: 1000
next table: 2597
cur table: 2680
epoch: 1000
next table: 1781
cur table: 1775
epoch: 1000
next table: 2623
cur table: 2597
epoch: 1000
next table: 1796
cur table: 1781
epoch: 1000
next table: 2497
cur table: 2623
epoch: 1000
next table: 1842
cur table: 1796
epoch: 1000
next table: 2600
cur table: 2497
epoch: 1000
next table: 1818
cur table: 1842
epoch: 1000
next table: 2570
cur table: 2600
epoch: 1000
next table: 1823
cur table: 1818
epoch: 1000
next table: 2525
cur table: 2570
epoch: 1000
next table: 1790
cur table: 1823
epoch: 1000
next table: 2681
cur table: 2525
epoch: 1000
next table: 1784
cur table: 1790
epoch: 1000
next table: 2650
cur table: 2681
epoch: 1000
next table: 1774
cur table: 1784
epoch: 1000
next table: 2569
cur table: 2650
epoch: 1000
next table: 1806
cur table: 1774
epoch: 1000
next table: 2602
cur table: 2569
epoch: 1000
next table: 1788
cur table: 1806
epoch: 1000
next table: 2576
cur table: 2602
epoch: 1000
next table: 1825
cur table: 1788
epoch: 1000
next table: 2587
cur table: 2576
epoch: 1000
next table: 1796
cur table: 1825
epoch: 1000
next table: 2613
cur table: 2587
epoch: 1000
next table: 1770
cur table: 1796
epoch: 1000
next table: 2616
cur table: 2613
epoch: 1000
next table: 1771
cur table: 1770
epoch: 1000
next table: 2646
cur table: 2616
epoch: 1000
next table: 1782
cur table: 1771
epoch: 1000
next table: 2657
cur table: 2646
epoch: 1000
next table: 1770
cur table: 1782
epoch: 1000
next table: 2653
cur table: 2657
epoch: 1000
next table: 1783
cur table: 1770
epoch: 1000
next table: 2613
cur table: 2653
epoch: 1000
next table: 1803
cur table: 1783
epoch: 1000
next table: 2594
cur table: 2613
epoch: 1000
next table: 1825
cur table: 1803
epoch: 1000
next table: 2484
cur table: 2594
epoch: 1000
next table: 1841
cur table: 1825
epoch: 1000
next table: 2513
cur table: 2484
epoch: 1000
next table: 1829
cur table: 1841
epoch: 1000
next table: 2545
cur table: 2513
epoch: 1000
next table: 1806
cur table: 1829
epoch: 1000
next table: 2646
cur table: 2545
epoch: 1000
next table: 1798
cur table: 1806
epoch: 1000
next table: 2602
cur table: 2646
epoch: 1000
next table: 1773
cur table: 1798
epoch: 1000
next table: 2635
cur table: 2602
epoch: 1000
next table: 1759
cur table: 1773
epoch: 1000
next table: 2696
cur table: 2635
epoch: 1000
next table: 1758
cur table: 1759
epoch: 1000
next table: 2649
cur table: 2696
epoch: 1000
next table: 1772
cur table: 1758
epoch: 1000
next table: 2653
cur table: 2649
epoch: 1000
next table: 1775
cur table: 1772
epoch: 1000
next table: 2641
cur table: 2653
epoch: 1000
next table: 1759
cur table: 1775
epoch: 1000
next table: 2676
cur table: 2641
epoch: 1000
next table: 1758
cur table: 1759
epoch: 1000
next table: 2675
cur table: 2676
epoch: 1000
next table: 1766
cur table: 1758
epoch: 1000
next table: 2634
cur table: 2675
epoch: 1000
next table: 1773
cur table: 1766
epoch: 1000
next table: 2639
cur table: 2634
epoch: 1000
next table: 1779
cur table: 1773
epoch: 1000
next table: 2658
cur table: 2639
epoch: 1000
next table: 1772
cur table: 1779
epoch: 1000
next table: 2661
cur table: 2658
epoch: 1000
next table: 2564
cur table: 2661
epoch: 1000
next table: 1797
cur table: 1772
epoch: 1000
next table: 2644
cur table: 2564
epoch: 1000
next table: 1791
cur table: 1797
epoch: 1000
next table: 2578
cur table: 2644
epoch: 1000
next table: 1809
cur table: 1791
epoch: 1000
next table: 2654
cur table: 2578
epoch: 1000
next table: 1786
cur table: 1809
epoch: 1000
next table: 2671
cur table: 2654
epoch: 1000
next table: 1757
cur table: 1786
epoch: 1000
next table: 2645
cur table: 2671
epoch: 1000
next table: 1761
cur table: 1757
epoch: 1000
next table: 2613
cur table: 2645
epoch: 1000
next table: 1773
cur table: 1761
epoch: 1000
next table: 2683
cur table: 2613
epoch: 1000
next table: 1783
cur table: 1773
epoch: 1000
next table: 2621
cur table: 2683
epoch: 1000
next table: 1797
cur table: 1783
epoch: 1000
next table: 2626
cur table: 2621
epoch: 1000
next table: 1761
cur table: 1797
epoch: 1000
next table: 2663
cur table: 2626
epoch: 1000
next table: 1756
cur table: 1761
epoch: 1000
next table: 2685
cur table: 2663
epoch: 1000
next table: 1760
cur table: 1756
epoch: 1000
next table: 2668
cur table: 2685
epoch: 1000
next table: 1779
cur table: 1760
Heartbeat CPU 0 instructions: 10000000 cycles: 2733688 heartbeat IPC: 3.65806 cumulative IPC: 3.65806 (Simulation time: 0 hr 4 min 44 sec) 
epoch: 1000
next table: 2645
cur table: 2668
epoch: 1000
next table: 1764
cur table: 1779
epoch: 1000
next table: 2647
cur table: 2645
epoch: 1000
next table: 1759
cur table: 1764
epoch: 1000
next table: 2657
cur table: 2647
epoch: 1000
next table: 1769
cur table: 1759
epoch: 1000
next table: 2637
cur table: 2657
epoch: 1000
next table: 1780
cur table: 1769
epoch: 1000
next table: 2613
cur table: 2637
epoch: 1000
next table: 1809
cur table: 1780
epoch: 1000
next table: 2660
cur table: 2613
epoch: 1000
next table: 1764
cur table: 1809
epoch: 1000
next table: 2650
cur table: 2660
epoch: 1000
next table: 1781
cur table: 1764
epoch: 1000
next table: 2586
cur table: 2650
epoch: 1000
next table: 1776
cur table: 1781
epoch: 1000
next table: 2658
cur table: 2586
epoch: 1000
next table: 1778
cur table: 1776
epoch: 1000
next table: 2656
cur table: 2658
epoch: 1000
next table: 1781
cur table: 1778
epoch: 1000
next table: 2595
cur table: 2656
epoch: 1000
next table: 1816
cur table: 1781
epoch: 1000
next table: 2572
cur table: 2595
epoch: 1000
next table: 1791
cur table: 1816
epoch: 1000
next table: 2592
cur table: 2572
epoch: 1000
next table: 1795
cur table: 1791
epoch: 1000
next table: 2679
cur table: 2592
epoch: 1000
next table: 1771
cur table: 1795
epoch: 1000
next table: 2654
cur table: 2679
epoch: 1000
next table: 1772
cur table: 1771
epoch: 1000
next table: 2650
cur table: 2654
epoch: 1000
next table: 1763
cur table: 1772
epoch: 1000
next table: 2647
cur table: 2650
epoch: 1000
next table: 1757
cur table: 1763
epoch: 1000
next table: 2677
cur table: 2647
epoch: 1000
next table: 1760
cur table: 1757
epoch: 1000
next table: 2678
cur table: 2677
epoch: 1000
next table: 1787
cur table: 1760
epoch: 1000
next table: 2585
cur table: 2678
epoch: 1000
next table: 1800
cur table: 1787
epoch: 1000
next table: 2645
cur table: 2585
epoch: 1000
next table: 1776
cur table: 1800
epoch: 1000
next table: 2654
cur table: 2645
epoch: 1000
next table: 1759
cur table: 1776
epoch: 1000
next table: 2646
cur table: 2654
epoch: 1000
next table: 1758
cur table: 1759
epoch: 1000
next table: 2642
cur table: 2646
epoch: 1000
next table: 1770
cur table: 1758
epoch: 1000
next table: 2665
cur table: 2642
epoch: 1000
next table: 1777
cur table: 1770
epoch: 1000
next table: 2692
cur table: 2665
epoch: 1000
next table: 1756
cur table: 1777
epoch: 1000
next table: 2663
cur table: 2692
epoch: 1000
next table: 1759
cur table: 1756
epoch: 1000
next table: 2639
cur table: 2663
epoch: 1000
next table: 1782
cur table: 1759
epoch: 1000
next table: 2613
cur table: 2639
epoch: 1000
next table: 1802
cur table: 1782
epoch: 1000
next table: 2630
cur table: 2613
epoch: 1000
next table: 1803
cur table: 1802
epoch: 1000
next table: 2580
cur table: 2630
epoch: 1000
next table: 1774
cur table: 1803
epoch: 1000
next table: 2688
cur table: 2580
epoch: 1000
next table: 1757
cur table: 1774
epoch: 1000
next table: 2646
cur table: 2688
epoch: 1000
next table: 1756
cur table: 1757
epoch: 1000
next table: 2649
cur table: 2646
epoch: 1000
next table: 1771
cur table: 1756
epoch: 1000
next table: 2646
cur table: 2649
epoch: 1000
next table: 1773
cur table: 1771
epoch: 1000
next table: 2668
cur table: 2646
epoch: 1000
next table: 1757
cur table: 1773
epoch: 1000
next table: 2699
cur table: 2668
epoch: 1000
next table: 1756
cur table: 1757
epoch: 1000
next table: 2648
cur table: 2699
epoch: 1000
next table: 1758
cur table: 1756
epoch: 1000
next table: 2651
cur table: 2648
epoch: 1000
next table: 1772
cur table: 1758
epoch: 1000
next table: 2645
cur table: 2651
epoch: 1000
next table: 1774
cur table: 1772
epoch: 1000
next table: 2682
cur table: 2645
epoch: 1000
next table: 1765
cur table: 1774
epoch: 1000
next table: 2663
cur table: 2682
epoch: 1000
next table: 1759
cur table: 1765
epoch: 1000
next table: 2637
cur table: 2663
epoch: 1000
next table: 1761
cur table: 1759
epoch: 1000
next table: 2644
cur table: 2637
epoch: 1000
next table: 1773
cur table: 1761
epoch: 1000
next table: 2659
cur table: 2644
epoch: 1000
next table: 1776
cur table: 1773
epoch: 1000
next table: 2696
cur table: 2659
epoch: 1000
next table: 1759
cur table: 1776
epoch: 1000
next table: 2639
cur table: 2696
epoch: 1000
next table: 1762
cur table: 1759
epoch: 1000
next table: 2605
cur table: 2639
epoch: 1000
next table: 1822
cur table: 1762
epoch: 1000
next table: 2589
cur table: 2605
epoch: 1000
next table: 1794
cur table: 1822
epoch: 1000
next table: 2612
cur table: 2589
epoch: 1000
next table: 1760
cur table: 1794
epoch: 1000
next table: 2671
cur table: 2612
epoch: 1000
next table: 1758
cur table: 1760
epoch: 1000
next table: 2692
cur table: 2671
epoch: 1000
next table: 1758
cur table: 1758
epoch: 1000
next table: 2649
cur table: 2692
epoch: 1000
next table: 1769
cur table: 1758
epoch: 1000
next table: 2653
cur table: 2649
epoch: 1000
next table: 1772
cur table: 1769
epoch: 1000
next table: 2643
cur table: 2653
epoch: 1000
next table: 1758
cur table: 1772
epoch: 1000
next table: 2677
cur table: 2643
epoch: 1000
next table: 1758
cur table: 1758
epoch: 1000
next table: 2689
cur table: 2677
epoch: 1000
next table: 1775
cur table: 1758
epoch: 1000
next table: 2656
cur table: 2689
epoch: 1000
next table: 1809
cur table: 1775
epoch: 1000
next table: 2667
cur table: 2656
epoch: 1000
next table: 1838
cur table: 1809
epoch: 1000
next table: 2660
cur table: 2667
epoch: 1000
next table: 1804
cur table: 1838
epoch: 1000
next table: 2660
cur table: 2660
epoch: 1000
next table: 1790
cur table: 1804
epoch: 1000
next table: 2629
cur table: 2660
epoch: 1000
next table: 1769
cur table: 1790
epoch: 1000
next table: 2627
cur table: 2629
epoch: 1000
next table: 1785
cur table: 1769
epoch: 1000
next table: 2631
cur table: 2627
epoch: 1000
next table: 1782
cur table: 1785
epoch: 1000
next table: 2679
cur table: 2631
epoch: 1000
next table: 1763
cur table: 1782
epoch: 1000
next table: 2611
cur table: 2679
epoch: 1000
next table: 1763
cur table: 1763
epoch: 1000
next table: 2623
cur table: 2611
epoch: 1000
next table: 1774
cur table: 1763
epoch: 1000
next table: 2693
cur table: 2623
epoch: 1000
next table: 1781
cur table: 1774
epoch: 1000
next table: 2665
cur table: 2693
epoch: 1000
next table: 1759
cur table: 1781
epoch: 1000
next table: 2646
cur table: 2665
epoch: 1000
next table: 1761
cur table: 1759
epoch: 1000
next table: 2646
cur table: 2646
epoch: 1000
next table: 1758
cur table: 1761
epoch: 1000
next table: 2670
cur table: 2646
epoch: 1000
next table: 1762
cur table: 1758
epoch: 1000
next table: 2683
cur table: 2670
epoch: 1000
next table: 1781
cur table: 1762
epoch: 1000
next table: 2642
cur table: 2683
epoch: 1000
next table: 1763
cur table: 1781
epoch: 1000
next table: 2641
cur table: 2642
epoch: 1000
next table: 1755
cur table: 1763
epoch: 1000
next table: 2646
cur table: 2641
epoch: 1000
next table: 1758
cur table: 1755
epoch: 1000
next table: 2690
cur table: 2646
epoch: 1000
next table: 1767
cur table: 1758
epoch: 1000
next table: 2678
cur table: 2690
epoch: 1000
next table: 1773
cur table: 1767
epoch: 1000
next table: 2646
cur table: 2678
epoch: 1000
next table: 1764
cur table: 1773
epoch: 1000
next table: 2637
cur table: 2646
epoch: 1000
next table: 1759
cur table: 1764
epoch: 1000
next table: 2667
cur table: 2637
epoch: 1000
next table: 1759
cur table: 1759
epoch: 1000
next table: 2681
cur table: 2667
epoch: 1000
next table: 1773
cur table: 1759
epoch: 1000
next table: 2652
cur table: 2681
epoch: 1000
next table: 1785
cur table: 1773
epoch: 1000
next table: 2619
cur table: 2652
epoch: 1000
next table: 1761
cur table: 1785
epoch: 1000
next table: 2646
cur table: 2619
epoch: 1000
next table: 1755
cur table: 1761
epoch: 1000
next table: 2696
cur table: 2646
epoch: 1000
next table: 1760
cur table: 1755
epoch: 1000
next table: 2663
cur table: 2696
epoch: 1000
next table: 1768
cur table: 1760
epoch: 1000
next table: 2641
cur table: 2663
epoch: 1000
next table: 1806
cur table: 1768
epoch: 1000
next table: 2598
cur table: 2641
epoch: 1000
next table: 1777
cur table: 1806
epoch: 1000
next table: 2630
cur table: 2598
epoch: 1000
next table: 1811
cur table: 1777
epoch: 1000
next table: 2584
cur table: 2630
epoch: 1000
next table: 1759
cur table: 1811
epoch: 1000
next table: 2671
cur table: 2584
epoch: 1000
next table: 1791
cur table: 1759
epoch: 1000
next table: 2600
cur table: 2671
epoch: 1000
next table: 1761
cur table: 1791
epoch: 1000
next table: 2640
cur table: 2600
epoch: 1000
next table: 1759
cur table: 1761
epoch: 1000
next table: 2686
cur table: 2640
epoch: 1000
next table: 1758
cur table: 1759
epoch: 1000
next table: 2669
cur table: 2686
epoch: 1000
next table: 1775
cur table: 1758
epoch: 1000
next table: 2643
cur table: 2669
epoch: 1000
next table: 1771
cur table: 1775
epoch: 1000
next table: 2649
cur table: 2643
epoch: 1000
next table: 1757
cur table: 1771
epoch: 1000
next table: 2667
cur table: 2649
epoch: 1000
next table: 1759
cur table: 1757
epoch: 1000
next table: 2681
cur table: 2667
epoch: 1000
next table: 1760
cur table: 1759
epoch: 1000
next table: 2656
cur table: 2681
epoch: 1000
next table: 1785
cur table: 1760
epoch: 1000
next table: 2621
cur table: 2656
epoch: 1000
next table: 1781
cur table: 1785
epoch: 1000
next table: 2649
cur table: 2621
epoch: 1000
next table: 1757
cur table: 1781
epoch: 1000
next table: 2684
cur table: 2649
epoch: 1000
next table: 1770
cur table: 1757
epoch: 1000
next table: 2629
cur table: 2684
epoch: 1000
next table: 1768
cur table: 1770
epoch: 1000
next table: 2617
cur table: 2629
epoch: 1000
next table: 1777
cur table: 1768
epoch: 1000
next table: 2665
cur table: 2617
epoch: 1000
next table: 1763
cur table: 1777
epoch: 1000
next table: 2689
cur table: 2665
epoch: 1000
next table: 1757
cur table: 1763
epoch: 1000
next table: 2647
cur table: 2689
epoch: 1000
next table: 1759
cur table: 1757
epoch: 1000
next table: 2646
cur table: 2647
epoch: 1000
next table: 1773
cur table: 1759
epoch: 1000
next table: 2645
cur table: 2646
epoch: 1000
next table: 1773
cur table: 1773
epoch: 1000
next table: 2692
cur table: 2645
epoch: 1000
next table: 1757
cur table: 1773
epoch: 1000
next table: 2671
cur table: 2692
epoch: 1000
next table: 1772
cur table: 1757
epoch: 1000
next table: 2612
cur table: 2671
epoch: 1000
next table: 2637
cur table: 2612
epoch: 1000
next table: 1760
cur table: 1772
epoch: 1000
next table: 2682
cur table: 2637
epoch: 1000
next table: 1772
cur table: 1760
epoch: 1000
next table: 2649
cur table: 2682
epoch: 1000
next table: 1786
cur table: 1772
epoch: 1000
next table: 2648
cur table: 2649
epoch: 1000
next table: 1759
cur table: 1786
epoch: 1000
next table: 2624
cur table: 2648
epoch: 1000
next table: 1771
cur table: 1759
epoch: 1000
next table: 2682
cur table: 2624
epoch: 1000
next table: 1761
cur table: 1771
epoch: 1000
next table: 2662
cur table: 2682
epoch: 1000
next table: 1783
cur table: 1761
epoch: 1000
next table: 2646
cur table: 2662
epoch: 1000
next table: 1766
cur table: 1783
epoch: 1000
next table: 2645
cur table: 2646
epoch: 1000
next table: 1760
cur table: 1766
epoch: 1000
next table: 2670
cur table: 2645
epoch: 1000
next table: 1757
cur table: 1760
epoch: 1000
next table: 2667
cur table: 2670
epoch: 1000
next table: 1770
cur table: 1757
epoch: 1000
next table: 2607
cur table: 2667
epoch: 1000
next table: 1796
cur table: 1770
epoch: 1000
next table: 2620
cur table: 2607
epoch: 1000
next table: 1793
cur table: 1796
epoch: 1000
next table: 2677
cur table: 2620
epoch: 1000
next table: 1759
cur table: 1793
epoch: 1000
next table: 2654
cur table: 2677
epoch: 1000
next table: 1757
cur table: 1759
epoch: 1000
next table: 2641
cur table: 2654
epoch: 1000
next table: 1767
cur table: 1757
epoch: 1000
next table: 2645
cur table: 2641
epoch: 1000
next table: 1783
cur table: 1767
epoch: 1000
next table: 2693
cur table: 2645
epoch: 1000
next table: 1768
cur table: 1783
epoch: 1000
next table: 2650
cur table: 2693
epoch: 1000
next table: 1756
cur table: 1768
epoch: 1000
next table: 2645
cur table: 2650
epoch: 1000
next table: 1759
cur table: 1756
epoch: 1000
next table: 2649
cur table: 2645
epoch: 1000
next table: 1767
cur table: 1759
epoch: 1000
next table: 2674
cur table: 2649
epoch: 1000
next table: 1774
cur table: 1767
epoch: 1000
next table: 2666
cur table: 2674
epoch: 1000
next table: 1774
cur table: 1774
epoch: 1000
next table: 2651
cur table: 2666
epoch: 1000
next table: 1768
cur table: 1774
epoch: 1000
next table: 2601
cur table: 2651
epoch: 1000
next table: 1785
cur table: 1768
epoch: 1000
next table: 2659
cur table: 2601
epoch: 1000
next table: 1779
cur table: 1785
epoch: 1000
next table: 2590
cur table: 2659
epoch: 1000
next table: 1797
cur table: 1779
epoch: 1000
next table: 2628
cur table: 2590
epoch: 1000
next table: 1801
cur table: 1797
epoch: 1000
next table: 2619
cur table: 2628
epoch: 1000
next table: 1780
cur table: 1801
epoch: 1000
next table: 2600
cur table: 2619
epoch: 1000
next table: 1782
cur table: 1780
epoch: 1000
next table: 2681
cur table: 2600
epoch: 1000
next table: 1771
cur table: 1782
epoch: 1000
next table: 2646
cur table: 2681
epoch: 1000
next table: 1775
cur table: 1771
epoch: 1000
next table: 2648
cur table: 2646
epoch: 1000
next table: 1757
cur table: 1775
epoch: 1000
next table: 2647
cur table: 2648
epoch: 1000
next table: 1759
cur table: 1757
epoch: 1000
next table: 2684
cur table: 2647
epoch: 1000
next table: 1756
cur table: 1759
epoch: 1000
next table: 2684
cur table: 2684
epoch: 1000
next table: 1772
cur table: 1756
epoch: 1000
next table: 2645
cur table: 2684
epoch: 1000
next table: 1777
cur table: 1772
epoch: 1000
next table: 2615
cur table: 2645
epoch: 1000
next table: 1771
cur table: 1777
epoch: 1000
next table: 2658
cur table: 2615
epoch: 1000
next table: 1768
cur table: 1771
epoch: 1000
next table: 2670
cur table: 2658
epoch: 1000
next table: 1761
cur table: 1768
epoch: 1000
next table: 2639
cur table: 2670
epoch: 1000
next table: 1776
cur table: 1761
epoch: 1000
next table: 2646
cur table: 2639
epoch: 1000
next table: 1771
cur table: 1776
epoch: 1000
next table: 2668
cur table: 2646
epoch: 1000
next table: 1767
cur table: 1771
epoch: 1000
next table: 2616
cur table: 2668
epoch: 1000
next table: 1773
cur table: 1767
epoch: 1000
next table: 2644
cur table: 2616
epoch: 1000
next table: 1765
cur table: 1773
epoch: 1000
next table: 2640
cur table: 2644
epoch: 1000
next table: 1788
cur table: 1765
epoch: 1000
next table: 2664
cur table: 2640
epoch: 1000
next table: 1780
cur table: 1788
epoch: 1000
next table: 2589
cur table: 2664
epoch: 1000
next table: 1774
cur table: 1780
epoch: 1000
next table: 2659
cur table: 2589
epoch: 1000
next table: 1760
cur table: 1774
epoch: 1000
next table: 2648
cur table: 2659
epoch: 1000
next table: 1805
cur table: 1760
epoch: 1000
next table: 2624
cur table: 2648
epoch: 1000
next table: 1763
cur table: 1805
epoch: 1000
next table: 2645
cur table: 2624
epoch: 1000
next table: 1759
cur table: 1763
epoch: 1000
next table: 2684
cur table: 2645
epoch: 1000
next table: 1767
cur table: 1759
epoch: 1000
next table: 2650
cur table: 2684
epoch: 1000
next table: 1760
cur table: 1767
epoch: 1000
next table: 2652
cur table: 2650
epoch: 1000
next table: 1777
cur table: 1760
epoch: 1000
next table: 2646
cur table: 2652
epoch: 1000
next table: 1767
cur table: 1777
epoch: 1000
next table: 2665
cur table: 2646
epoch: 1000
next table: 1770
cur table: 1767
epoch: 1000
next table: 2645
cur table: 2665
epoch: 1000
next table: 1782
cur table: 1770
epoch: 1000
next table: 2591
cur table: 2645
epoch: 1000
next table: 1787
cur table: 1782
epoch: 1000
next table: 2651
cur table: 2591
epoch: 1000
next table: 1811
cur table: 1787
epoch: 1000
next table: 2570
cur table: 2651
epoch: 1000
next table: 1792
cur table: 1811
epoch: 1000
next table: 2653
cur table: 2570
epoch: 1000
next table: 1755
cur table: 1792
epoch: 1000
next table: 2682
cur table: 2653
epoch: 1000
next table: 1758
cur table: 1755
epoch: 1000
next table: 2662
cur table: 2682
epoch: 1000
next table: 1766
cur table: 1758
epoch: 1000
next table: 2646
cur table: 2662
epoch: 1000
next table: 1775
cur table: 1766
epoch: 1000
next table: 2645
cur table: 2646
epoch: 1000
next table: 1762
cur table: 1775
epoch: 1000
next table: 2660
cur table: 2645
epoch: 1000
next table: 1764
cur table: 1762
epoch: 1000
next table: 2637
cur table: 2660
epoch: 1000
next table: 1788
cur table: 1764
epoch: 1000
next table: 2579
cur table: 2637
epoch: 1000
next table: 1808
cur table: 1788
epoch: 1000
next table: 2657
cur table: 2579
epoch: 1000
next table: 1797
cur table: 1808
epoch: 1000
next table: 2564
cur table: 2657
epoch: 1000
next table: 1784
cur table: 1797
epoch: 1000
next table: 2649
cur table: 2564
epoch: 1000
next table: 1827
cur table: 1784
epoch: 1000
next table: 2511
cur table: 2649
epoch: 1000
next table: 1820
cur table: 1827
epoch: 1000
next table: 2554
cur table: 2511
epoch: 1000
next table: 1826
cur table: 1820
epoch: 1000
next table: 2546
cur table: 2554
epoch: 1000
next table: 1829
cur table: 1826
epoch: 1000
next table: 2499
cur table: 2546
epoch: 1000
next table: 1763
cur table: 1829
epoch: 1000
next table: 2572
cur table: 2499
epoch: 1000
next table: 1825
cur table: 1763
epoch: 1000
next table: 2523
cur table: 2572
epoch: 1000
next table: 1780
cur table: 1825
epoch: 1000
next table: 2642
cur table: 2523
epoch: 1000
next table: 1768
cur table: 1780
epoch: 1000
next table: 2615
cur table: 2642
epoch: 1000
next table: 1764
cur table: 1768
epoch: 1000
next table: 2640
cur table: 2615
epoch: 1000
next table: 2516
cur table: 2640
epoch: 1000
next table: 1881
cur table: 1764
epoch: 1000
next table: 2537
cur table: 2516
epoch: 1000
next table: 1858
cur table: 1881
epoch: 1000
next table: 2624
cur table: 2537
epoch: 1000
next table: 1879
cur table: 1858
epoch: 1000
next table: 2500
cur table: 2624
epoch: 1000
next table: 1955
cur table: 1879
epoch: 1000
next table: 2501
cur table: 2500
epoch: 1000
next table: 2528
cur table: 2501
epoch: 1000
next table: 2196
cur table: 1955
epoch: 1000
next table: 2555
cur table: 2528
epoch: 1000
next table: 2149
cur table: 2196
epoch: 1000
next table: 2514
cur table: 2555
epoch: 1000
next table: 2122
cur table: 2149
epoch: 1000
next table: 2566
cur table: 2514
epoch: 1000
next table: 2541
cur table: 2566
epoch: 1000
next table: 2157
cur table: 2122
epoch: 1000
next table: 2650
cur table: 2541
epoch: 1000
next table: 2081
cur table: 2157
epoch: 1000
next table: 2612
cur table: 2650
epoch: 1000
next table: 2636
cur table: 2612
epoch: 1000
next table: 2274
cur table: 2081
epoch: 1000
next table: 2667
cur table: 2636
epoch: 1000
next table: 2543
cur table: 2667
epoch: 1000
next table: 2209
cur table: 2274
epoch: 1000
next table: 2650
cur table: 2543
epoch: 1000
next table: 2103
cur table: 2209
epoch: 1000
next table: 2549
cur table: 2650
epoch: 1000
next table: 2069
cur table: 2103
epoch: 1000
next table: 2657
cur table: 2549
epoch: 1000
next table: 2554
cur table: 2657
epoch: 1000
next table: 2055
cur table: 2069
epoch: 1000
next table: 2539
cur table: 2554
epoch: 1000
next table: 2026
cur table: 2055
epoch: 1000
next table: 2582
cur table: 2539
epoch: 1000
next table: 2534
cur table: 2582
epoch: 1000
next table: 2136
cur table: 2026
epoch: 1000
next table: 2550
cur table: 2534
epoch: 1000
next table: 2019
cur table: 2136
epoch: 1000
next table: 2615
cur table: 2550
epoch: 1000
next table: 2007
cur table: 2019
epoch: 1000
next table: 2570
cur table: 2615
epoch: 1000
next table: 2627
cur table: 2570
epoch: 1000
next table: 2073
cur table: 2007
epoch: 1000
next table: 2499
cur table: 2627
Heartbeat CPU 0 instructions: 20000002 cycles: 5470336 heartbeat IPC: 3.65411 cumulative IPC: 3.65608 (Simulation time: 0 hr 9 min 33 sec) 
epoch: 1000
next table: 2137
cur table: 2073
epoch: 1000
next table: 2563
cur table: 2499
epoch: 1000
next table: 2067
cur table: 2137
epoch: 1000
next table: 2465
cur table: 2563
epoch: 1000
next table: 2535
cur table: 2465
epoch: 1000
next table: 1933
cur table: 2067
epoch: 1000
next table: 2540
cur table: 2535
epoch: 1000
next table: 1959
cur table: 1933
epoch: 1000
next table: 2568
cur table: 2540
epoch: 1000
next table: 1927
cur table: 1959
epoch: 1000
next table: 2625
cur table: 2568
epoch: 1000
next table: 1933
cur table: 1927
epoch: 1000
next table: 2581
cur table: 2625
epoch: 1000
next table: 1926
cur table: 1933
epoch: 1000
next table: 2584
cur table: 2581
epoch: 1000
next table: 2492
cur table: 2584
epoch: 1000
next table: 1974
cur table: 1926
epoch: 1000
next table: 2543
cur table: 2492
epoch: 1000
next table: 1953
cur table: 1974
epoch: 1000
next table: 2523
cur table: 2543
epoch: 1000
next table: 1917
cur table: 1953
epoch: 1000
next table: 2541
cur table: 2523
epoch: 1000
next table: 1893
cur table: 1917
epoch: 1000
next table: 2594
cur table: 2541
epoch: 1000
next table: 1879
cur table: 1893
epoch: 1000
next table: 2601
cur table: 2594
epoch: 1000
next table: 2556
cur table: 2601
epoch: 1000
next table: 1937
cur table: 1879
epoch: 1000
next table: 2547
cur table: 2556
epoch: 1000
next table: 1904
cur table: 1937
epoch: 1000
next table: 2391
cur table: 2547
epoch: 1000
next table: 2022
cur table: 1904
epoch: 1000
next table: 2492
cur table: 2391
epoch: 1000
next table: 1942
cur table: 2022
epoch: 1000
next table: 2477
cur table: 2492
epoch: 1000
next table: 1918
cur table: 1942
epoch: 1000
next table: 2537
cur table: 2477
epoch: 1000
next table: 2559
cur table: 2537
epoch: 1000
next table: 1925
cur table: 1918
epoch: 1000
next table: 2424
cur table: 2559
epoch: 1000
next table: 1927
cur table: 1925
epoch: 1000
next table: 2508
cur table: 2424
epoch: 1000
next table: 1890
cur table: 1927
epoch: 1000
next table: 2577
cur table: 2508
epoch: 1000
next table: 1876
cur table: 1890
epoch: 1000
next table: 2511
cur table: 2577
epoch: 1000
next table: 1865
cur table: 1876
epoch: 1000
next table: 2523
cur table: 2511
epoch: 1000
next table: 1843
cur table: 1865
epoch: 1000
next table: 2509
cur table: 2523
epoch: 1000
next table: 1825
cur table: 1843
epoch: 1000
next table: 2593
cur table: 2509
epoch: 1000
next table: 1832
cur table: 1825
epoch: 1000
next table: 2593
cur table: 2593
epoch: 1000
next table: 1870
cur table: 1832
epoch: 1000
next table: 2490
cur table: 2593
epoch: 1000
next table: 2479
cur table: 2490
epoch: 1000
next table: 1891
cur table: 1870
epoch: 1000
next table: 2498
cur table: 2479
epoch: 1000
next table: 1897
cur table: 1891
epoch: 1000
next table: 2500
cur table: 2498
epoch: 1000
next table: 1902
cur table: 1897
epoch: 1000
next table: 2486
cur table: 2500
epoch: 1000
next table: 1902
cur table: 1902
epoch: 1000
next table: 2480
cur table: 2486
epoch: 1000
next table: 1919
cur table: 1902
epoch: 1000
next table: 2476
cur table: 2480
epoch: 1000
next table: 1956
cur table: 1919
epoch: 1000
next table: 2500
cur table: 2476
epoch: 1000
next table: 2502
cur table: 2500
epoch: 1000
next table: 1920
cur table: 1956
epoch: 1000
next table: 2478
cur table: 2502
epoch: 1000
next table: 1908
cur table: 1920
epoch: 1000
next table: 2448
cur table: 2478
epoch: 1000
next table: 1944
cur table: 1908
epoch: 1000
next table: 2484
cur table: 2448
epoch: 1000
next table: 1910
cur table: 1944
epoch: 1000
next table: 2507
cur table: 2484
epoch: 1000
next table: 1891
cur table: 1910
epoch: 1000
next table: 2508
cur table: 2507
epoch: 1000
next table: 1911
cur table: 1891
epoch: 1000
next table: 2505
cur table: 2508
epoch: 1000
next table: 2500
cur table: 2505
epoch: 1000
next table: 1935
cur table: 1911
epoch: 1000
next table: 2475
cur table: 2500
epoch: 1000
next table: 1926
cur table: 1935
epoch: 1000
next table: 2500
cur table: 2475
epoch: 1000
next table: 1876
cur table: 1926
epoch: 1000
next table: 2498
cur table: 2500
epoch: 1000
next table: 1939
cur table: 1876
epoch: 1000
next table: 2545
cur table: 2498
epoch: 1000
next table: 1888
cur table: 1939
epoch: 1000
next table: 2545
cur table: 2545
epoch: 1000
next table: 1921
cur table: 1888
epoch: 1000
next table: 2469
cur table: 2545
epoch: 1000
next table: 1911
cur table: 1921
epoch: 1000
next table: 2494
cur table: 2469
epoch: 1000
next table: 2504
cur table: 2494
epoch: 1000
next table: 1926
cur table: 1911
epoch: 1000
next table: 2464
cur table: 2504
epoch: 1000
next table: 1941
cur table: 1926
epoch: 1000
next table: 2512
cur table: 2464
epoch: 1000
next table: 1893
cur table: 1941
epoch: 1000
next table: 2530
cur table: 2512
epoch: 1000
next table: 1898
cur table: 1893
epoch: 1000
next table: 2423
cur table: 2530
epoch: 1000
next table: 1987
cur table: 1898
epoch: 1000
next table: 2424
cur table: 2423
epoch: 1000
next table: 2430
cur table: 2424
epoch: 1000
next table: 1969
cur table: 1987
epoch: 1000
next table: 2410
cur table: 2430
epoch: 1000
next table: 1972
cur table: 1969
epoch: 1000
next table: 2481
cur table: 2410
epoch: 1000
next table: 1877
cur table: 1972
epoch: 1000
next table: 2511
cur table: 2481
epoch: 1000
next table: 1871
cur table: 1877
epoch: 1000
next table: 2545
cur table: 2511
epoch: 1000
next table: 1903
cur table: 1871
epoch: 1000
next table: 2458
cur table: 2545
epoch: 1000
next table: 1895
cur table: 1903
epoch: 1000
next table: 2540
cur table: 2458
epoch: 1000
next table: 1888
cur table: 1895
epoch: 1000
next table: 2494
cur table: 2540
epoch: 1000
next table: 2498
cur table: 2494
epoch: 1000
next table: 1880
cur table: 1888
epoch: 1000
next table: 2513
cur table: 2498
epoch: 1000
next table: 1828
cur table: 1880
epoch: 1000
next table: 2508
cur table: 2513
epoch: 1000
next table: 1847
cur table: 1828
epoch: 1000
next table: 2573
cur table: 2508
epoch: 1000
next table: 1869
cur table: 1847
epoch: 1000
next table: 2513
cur table: 2573
epoch: 1000
next table: 1831
cur table: 1869
epoch: 1000
next table: 2534
cur table: 2513
epoch: 1000
next table: 1849
cur table: 1831
epoch: 1000
next table: 2506
cur table: 2534
epoch: 1000
next table: 1848
cur table: 1849
epoch: 1000
next table: 2543
cur table: 2506
epoch: 1000
next table: 1847
cur table: 1848
epoch: 1000
next table: 2493
cur table: 2543
epoch: 1000
next table: 1899
cur table: 1847
epoch: 1000
next table: 2456
cur table: 2493
epoch: 1000
next table: 1873
cur table: 1899
epoch: 1000
next table: 2506
cur table: 2456
epoch: 1000
next table: 1832
cur table: 1873
epoch: 1000
next table: 2526
cur table: 2506
epoch: 1000
next table: 2465
cur table: 2526
epoch: 1000
next table: 1890
cur table: 1832
epoch: 1000
next table: 2485
cur table: 2465
epoch: 1000
next table: 1880
cur table: 1890
epoch: 1000
next table: 2523
cur table: 2485
epoch: 1000
next table: 1864
cur table: 1880
epoch: 1000
next table: 2466
cur table: 2523
epoch: 1000
next table: 1861
cur table: 1864
epoch: 1000
next table: 2500
cur table: 2466
epoch: 1000
next table: 1856
cur table: 1861
epoch: 1000
next table: 2519
cur table: 2500
epoch: 1000
next table: 1884
cur table: 1856
epoch: 1000
next table: 2480
cur table: 2519
epoch: 1000
next table: 1860
cur table: 1884
epoch: 1000
next table: 2525
cur table: 2480
epoch: 1000
next table: 1863
cur table: 1860
epoch: 1000
next table: 2447
cur table: 2525
epoch: 1000
next table: 1886
cur table: 1863
epoch: 1000
next table: 2500
cur table: 2447
epoch: 1000
next table: 2478
cur table: 2500
epoch: 1000
next table: 1875
cur table: 1886
epoch: 1000
next table: 2518
cur table: 2478
epoch: 1000
next table: 1852
cur table: 1875
epoch: 1000
next table: 2519
cur table: 2518
epoch: 1000
next table: 1852
cur table: 1852
epoch: 1000
next table: 2473
cur table: 2519
epoch: 1000
next table: 1875
cur table: 1852
epoch: 1000
next table: 2529
cur table: 2473
epoch: 1000
next table: 1858
cur table: 1875
epoch: 1000
next table: 2523
cur table: 2529
epoch: 1000
next table: 1827
cur table: 1858
epoch: 1000
next table: 2579
cur table: 2523
epoch: 1000
next table: 1780
cur table: 1827
epoch: 1000
next table: 2622
cur table: 2579
epoch: 1000
next table: 1801
cur table: 1780
epoch: 1000
next table: 2651
cur table: 2622
epoch: 1000
next table: 1775
cur table: 1801
epoch: 1000
next table: 2641
cur table: 2651
epoch: 1000
next table: 1779
cur table: 1775
epoch: 1000
next table: 2626
cur table: 2641
epoch: 1000
next table: 1778
cur table: 1779
epoch: 1000
next table: 2642
cur table: 2626
epoch: 1000
next table: 1840
cur table: 1778
epoch: 1000
next table: 2508
cur table: 2642
epoch: 1000
next table: 1849
cur table: 1840
epoch: 1000
next table: 2501
cur table: 2508
epoch: 1000
next table: 1899
cur table: 1849
epoch: 1000
next table: 2470
cur table: 2501
epoch: 1000
next table: 1852
cur table: 1899
epoch: 1000
next table: 2504
cur table: 2470
epoch: 1000
next table: 2530
cur table: 2504
epoch: 1000
next table: 1849
cur table: 1852
epoch: 1000
next table: 2499
cur table: 2530
epoch: 1000
next table: 1865
cur table: 1849
epoch: 1000
next table: 2500
cur table: 2499
epoch: 1000
next table: 1852
cur table: 1865
epoch: 1000
next table: 2479
cur table: 2500
epoch: 1000
next table: 1867
cur table: 1852
epoch: 1000
next table: 2506
cur table: 2479
epoch: 1000
next table: 1878
cur table: 1867
epoch: 1000
next table: 2477
cur table: 2506
epoch: 1000
next table: 1816
cur table: 1878
epoch: 1000
next table: 2521
cur table: 2477
epoch: 1000
next table: 1827
cur table: 1816
epoch: 1000
next table: 2515
cur table: 2521
epoch: 1000
next table: 1822
cur table: 1827
epoch: 1000
next table: 2559
cur table: 2515
epoch: 1000
next table: 1860
cur table: 1822
epoch: 1000
next table: 2479
cur table: 2559
epoch: 1000
next table: 1862
cur table: 1860
epoch: 1000
next table: 2516
cur table: 2479
epoch: 1000
next table: 1825
cur table: 1862
epoch: 1000
next table: 2500
cur table: 2516
epoch: 1000
next table: 1822
cur table: 1825
epoch: 1000
next table: 2535
cur table: 2500
epoch: 1000
next table: 1861
cur table: 1822
epoch: 1000
next table: 2515
cur table: 2535
epoch: 1000
next table: 2519
cur table: 2515
epoch: 1000
next table: 1816
cur table: 1861
epoch: 1000
next table: 2514
cur table: 2519
epoch: 1000
next table: 1829
cur table: 1816
epoch: 1000
next table: 2580
cur table: 2514
epoch: 1000
next table: 1817
cur table: 1829
epoch: 1000
next table: 2453
cur table: 2580
epoch: 1000
next table: 1890
cur table: 1817
epoch: 1000
next table: 2551
cur table: 2453
epoch: 1000
next table: 1828
cur table: 1890
epoch: 1000
next table: 2526
cur table: 2551
epoch: 1000
next table: 1874
cur table: 1828
epoch: 1000
next table: 2534
cur table: 2526
epoch: 1000
next table: 1847
cur table: 1874
epoch: 1000
next table: 2495
cur table: 2534
epoch: 1000
next table: 1815
cur table: 1847
epoch: 1000
next table: 2529
cur table: 2495
epoch: 1000
next table: 1858
cur table: 1815
epoch: 1000
next table: 2537
cur table: 2529
epoch: 1000
next table: 1831
cur table: 1858
epoch: 1000
next table: 2564
cur table: 2537
epoch: 1000
next table: 1838
cur table: 1831
epoch: 1000
next table: 2520
cur table: 2564
epoch: 1000
next table: 1912
cur table: 1838
epoch: 1000
next table: 2447
cur table: 2520
epoch: 1000
next table: 2568
cur table: 2447
epoch: 1000
next table: 1810
cur table: 1912
epoch: 1000
next table: 2481
cur table: 2568
epoch: 1000
next table: 1893
cur table: 1810
epoch: 1000
next table: 2488
cur table: 2481
epoch: 1000
next table: 1865
cur table: 1893
epoch: 1000
next table: 2514
cur table: 2488
epoch: 1000
next table: 1856
cur table: 1865
epoch: 1000
next table: 2484
cur table: 2514
epoch: 1000
next table: 1869
cur table: 1856
epoch: 1000
next table: 2515
cur table: 2484
epoch: 1000
next table: 1853
cur table: 1869
epoch: 1000
next table: 2483
cur table: 2515
epoch: 1000
next table: 1878
cur table: 1853
epoch: 1000
next table: 2502
cur table: 2483
epoch: 1000
next table: 1843
cur table: 1878
epoch: 1000
next table: 2483
cur table: 2502
epoch: 1000
next table: 1849
cur table: 1843
epoch: 1000
next table: 2493
cur table: 2483
epoch: 1000
next table: 1930
cur table: 1849
epoch: 1000
next table: 2367
cur table: 2493
epoch: 1000
next table: 2428
cur table: 2367
epoch: 1000
next table: 1932
cur table: 1930
epoch: 1000
next table: 2466
cur table: 2428
epoch: 1000
next table: 1908
cur table: 1932
epoch: 1000
next table: 2525
cur table: 2466
epoch: 1000
next table: 1845
cur table: 1908
epoch: 1000
next table: 2589
cur table: 2525
epoch: 1000
next table: 1871
cur table: 1845
epoch: 1000
next table: 2583
cur table: 2589
epoch: 1000
next table: 1835
cur table: 1871
epoch: 1000
next table: 2614
cur table: 2583
epoch: 1000
next table: 1843
cur table: 1835
epoch: 1000
next table: 2585
cur table: 2614
epoch: 1000
next table: 1868
cur table: 1843
epoch: 1000
next table: 2488
cur table: 2585
epoch: 1000
next table: 1841
cur table: 1868
epoch: 1000
next table: 2598
cur table: 2488
epoch: 1000
next table: 1873
cur table: 1841
epoch: 1000
next table: 2536
cur table: 2598
epoch: 1000
next table: 2609
cur table: 2536
epoch: 1000
next table: 1789
cur table: 1873
epoch: 1000
next table: 2647
cur table: 2609
epoch: 1000
next table: 1769
cur table: 1789
epoch: 1000
next table: 2638
cur table: 2647
epoch: 1000
next table: 1804
cur table: 1769
epoch: 1000
next table: 2502
cur table: 2638
epoch: 1000
next table: 1839
cur table: 1804
epoch: 1000
next table: 2541
cur table: 2502
epoch: 1000
next table: 1817
cur table: 1839
epoch: 1000
next table: 2475
cur table: 2541
epoch: 1000
next table: 1894
cur table: 1817
epoch: 1000
next table: 2507
cur table: 2475
epoch: 1000
next table: 1866
cur table: 1894
epoch: 1000
next table: 2504
cur table: 2507
epoch: 1000
next table: 1889
cur table: 1866
epoch: 1000
next table: 2497
cur table: 2504
epoch: 1000
next table: 1858
cur table: 1889
epoch: 1000
next table: 2465
cur table: 2497
epoch: 1000
next table: 1918
cur table: 1858
epoch: 1000
next table: 2397
cur table: 2465
epoch: 1000
next table: 1957
cur table: 1918
epoch: 1000
next table: 2391
cur table: 2397
epoch: 1000
next table: 2513
cur table: 2391
epoch: 1000
next table: 1861
cur table: 1957
epoch: 1000
next table: 2494
cur table: 2513
epoch: 1000
next table: 1824
cur table: 1861
epoch: 1000
next table: 2591
cur table: 2494
epoch: 1000
next table: 1816
cur table: 1824
epoch: 1000
next table: 2589
cur table: 2591
epoch: 1000
next table: 1794
cur table: 1816
epoch: 1000
next table: 2512
cur table: 2589
epoch: 1000
next table: 1836
cur table: 1794
epoch: 1000
next table: 2442
cur table: 2512
epoch: 1000
next table: 1895
cur table: 1836
epoch: 1000
next table: 2409
cur table: 2442
epoch: 1000
next table: 1922
cur table: 1895
epoch: 1000
next table: 2406
cur table: 2409
epoch: 1000
next table: 1904
cur table: 1922
epoch: 1000
next table: 2459
cur table: 2406
epoch: 1000
next table: 1836
cur table: 1904
epoch: 1000
next table: 2507
cur table: 2459
epoch: 1000
next table: 1848
cur table: 1836
epoch: 1000
next table: 2509
cur table: 2507
epoch: 1000
next table: 1776
cur table: 1848
epoch: 1000
next table: 2561
cur table: 2509
epoch: 1000
next table: 1842
cur table: 1776
epoch: 1000
next table: 2466
cur table: 2561
epoch: 1000
next table: 1823
cur table: 1842
epoch: 1000
next table: 2532
cur table: 2466
epoch: 1000
next table: 2500
cur table: 2532
epoch: 1000
next table: 1861
cur table: 1823
epoch: 1000
next table: 2570
cur table: 2500
epoch: 1000
next table: 1808
cur table: 1861
epoch: 1000
next table: 2456
cur table: 2570
epoch: 1000
next table: 1835
cur table: 1808
epoch: 1000
next table: 2519
cur table: 2456
epoch: 1000
next table: 1837
cur table: 1835
epoch: 1000
next table: 2415
cur table: 2519
epoch: 1000
next table: 1871
cur table: 1837
epoch: 1000
next table: 2523
cur table: 2415
epoch: 1000
next table: 1875
cur table: 1871
epoch: 1000
next table: 2564
cur table: 2523
epoch: 1000
next table: 1874
cur table: 1875
epoch: 1000
next table: 2579
cur table: 2564
epoch: 1000
next table: 1916
cur table: 1874
epoch: 1000
next table: 2560
cur table: 2579
epoch: 1000
next table: 1941
cur table: 1916
epoch: 1000
next table: 2478
cur table: 2560
epoch: 1000
next table: 2345
cur table: 2478
epoch: 1000
next table: 2028
cur table: 1941
epoch: 1000
next table: 2413
cur table: 2345
epoch: 1000
next table: 1956
cur table: 2028
epoch: 1000
next table: 2514
cur table: 2413
epoch: 1000
next table: 1930
cur table: 1956
epoch: 1000
next table: 2570
cur table: 2514
epoch: 1000
next table: 1849
cur table: 1930
epoch: 1000
next table: 2506
cur table: 2570
epoch: 1000
next table: 1864
cur table: 1849
epoch: 1000
next table: 2474
cur table: 2506
epoch: 1000
next table: 1862
cur table: 1864
epoch: 1000
next table: 2502
cur table: 2474
epoch: 1000
next table: 1870
cur table: 1862
epoch: 1000
next table: 2488
cur table: 2502
epoch: 1000
next table: 2428
cur table: 2488
epoch: 1000
next table: 1889
cur table: 1870
epoch: 1000
next table: 2570
cur table: 2428
epoch: 1000
next table: 1826
cur table: 1889
epoch: 1000
next table: 2459
cur table: 2570
epoch: 1000
next table: 1885
cur table: 1826
epoch: 1000
next table: 2522
cur table: 2459
epoch: 1000
next table: 1852
cur table: 1885
epoch: 1000
next table: 2484
cur table: 2522
epoch: 1000
next table: 1855
cur table: 1852
epoch: 1000
next table: 2488
cur table: 2484
epoch: 1000
next table: 1838
cur table: 1855
epoch: 1000
next table: 2508
cur table: 2488
epoch: 1000
next table: 1813
cur table: 1838
epoch: 1000
next table: 2547
cur table: 2508
epoch: 1000
next table: 1841
cur table: 1813
epoch: 1000
next table: 2537
cur table: 2547
epoch: 1000
next table: 1859
cur table: 1841
epoch: 1000
next table: 2477
cur table: 2537
epoch: 1000
next table: 1832
cur table: 1859
epoch: 1000
next table: 2485
cur table: 2477
epoch: 1000
next table: 1912
cur table: 1832
epoch: 1000
next table: 2476
cur table: 2485
epoch: 1000
next table: 2442
cur table: 2476
epoch: 1000
next table: 1872
cur table: 1912
epoch: 1000
next table: 2569
cur table: 2442
epoch: 1000
next table: 1823
cur table: 1872
epoch: 1000
next table: 2546
cur table: 2569
epoch: 1000
next table: 1860
cur table: 1823
epoch: 1000
next table: 2454
cur table: 2546
epoch: 1000
next table: 1941
cur table: 1860
epoch: 1000
next table: 2407
cur table: 2454
epoch: 1000
next table: 1853
cur table: 1941
epoch: 1000
next table: 2467
cur table: 2407
epoch: 1000
next table: 1953
cur table: 1853
epoch: 1000
next table: 2286
cur table: 2467
epoch: 1000
next table: 1975
cur table: 1953
epoch: 1000
next table: 2327
cur table: 2286
epoch: 1000
next table: 1875
cur table: 1975
epoch: 1000
next table: 2447
cur table: 2327
epoch: 1000
next table: 2506
cur table: 2447
epoch: 1000
next table: 1823
cur table: 1875
epoch: 1000
next table: 2497
cur table: 2506
epoch: 1000
next table: 1874
cur table: 1823
epoch: 1000
next table: 2545
cur table: 2497
epoch: 1000
next table: 1833
cur table: 1874
epoch: 1000
next table: 2520
cur table: 2545
epoch: 1000
next table: 1836
cur table: 1833
epoch: 1000
next table: 2534
cur table: 2520
epoch: 1000
next table: 1849
cur table: 1836
epoch: 1000
next table: 2539
cur table: 2534
epoch: 1000
next table: 1867
cur table: 1849
epoch: 1000
next table: 2508
cur table: 2539
epoch: 1000
next table: 1837
cur table: 1867
epoch: 1000
next table: 2512
cur table: 2508
epoch: 1000
next table: 1842
cur table: 1837
epoch: 1000
next table: 2526
cur table: 2512
epoch: 1000
next table: 1844
cur table: 1842
epoch: 1000
next table: 2516
cur table: 2526
epoch: 1000
next table: 1872
cur table: 1844
epoch: 1000
next table: 2538
cur table: 2516
epoch: 1000
next table: 1850
cur table: 1872
epoch: 1000
next table: 2523
cur table: 2538
epoch: 1000
next table: 1851
cur table: 1850
epoch: 1000
next table: 2522
cur table: 2523
epoch: 1000
next table: 2523
cur table: 2522
epoch: 1000
next table: 1833
cur table: 1851
epoch: 1000
next table: 2461
cur table: 2523
epoch: 1000
next table: 1917
cur table: 1833
epoch: 1000
next table: 2547
cur table: 2461
epoch: 1000
next table: 1821
cur table: 1917
epoch: 1000
next table: 2557
cur table: 2547
epoch: 1000
next table: 1821
cur table: 1821
epoch: 1000
next table: 2605
cur table: 2557
epoch: 1000
next table: 1800
cur table: 1821
Heartbeat CPU 0 instructions: 30000000 cycles: 8204058 heartbeat IPC: 3.65802 cumulative IPC: 3.65673 (Simulation time: 0 hr 14 min 26 sec) 
epoch: 1000
next table: 2540
cur table: 2605
epoch: 1000
next table: 1808
cur table: 1800
epoch: 1000
next table: 2652
cur table: 2540
epoch: 1000
next table: 1805
cur table: 1808
epoch: 1000
next table: 2566
cur table: 2652
epoch: 1000
next table: 1809
cur table: 1805
epoch: 1000
next table: 2505
cur table: 2566
epoch: 1000
next table: 1865
cur table: 1809
epoch: 1000
next table: 2547
cur table: 2505
epoch: 1000
next table: 1837
cur table: 1865
epoch: 1000
next table: 2547
cur table: 2547
epoch: 1000
next table: 1891
cur table: 1837
epoch: 1000
next table: 2454
cur table: 2547
epoch: 1000
next table: 1904
cur table: 1891
epoch: 1000
next table: 2464
cur table: 2454
epoch: 1000
next table: 2464
cur table: 2464
epoch: 1000
next table: 1893
cur table: 1904
epoch: 1000
next table: 2471
cur table: 2464
epoch: 1000
next table: 1859
cur table: 1893
epoch: 1000
next table: 2514
cur table: 2471
epoch: 1000
next table: 1864
cur table: 1859
epoch: 1000
next table: 2486
cur table: 2514
epoch: 1000
next table: 1875
cur table: 1864
epoch: 1000
next table: 2525
cur table: 2486
epoch: 1000
next table: 1849
cur table: 1875
epoch: 1000
next table: 2459
cur table: 2525
epoch: 1000
next table: 1879
cur table: 1849
epoch: 1000
next table: 2501
cur table: 2459
epoch: 1000
next table: 1873
cur table: 1879
epoch: 1000
next table: 2483
cur table: 2501
epoch: 1000
next table: 1906
cur table: 1873
epoch: 1000
next table: 2453
cur table: 2483
epoch: 1000
next table: 1841
cur table: 1906
epoch: 1000
next table: 2538
cur table: 2453
epoch: 1000
next table: 1854
cur table: 1841
epoch: 1000
next table: 2528
cur table: 2538
epoch: 1000
next table: 2594
cur table: 2528
epoch: 1000
next table: 1822
cur table: 1854
epoch: 1000
next table: 2496
cur table: 2594
epoch: 1000
next table: 1864
cur table: 1822
epoch: 1000
next table: 2557
cur table: 2496
epoch: 1000
next table: 1812
cur table: 1864
epoch: 1000
next table: 2568
cur table: 2557
epoch: 1000
next table: 1829
cur table: 1812
epoch: 1000
next table: 2495
cur table: 2568
epoch: 1000
next table: 1874
cur table: 1829
epoch: 1000
next table: 2549
cur table: 2495
epoch: 1000
next table: 1852
cur table: 1874
epoch: 1000
next table: 2511
cur table: 2549
epoch: 1000
next table: 1967
cur table: 1852
epoch: 1000
next table: 2497
cur table: 2511
epoch: 1000
next table: 2022
cur table: 1967
epoch: 1000
next table: 2487
cur table: 2497
epoch: 1000
next table: 2463
cur table: 2487
epoch: 1000
next table: 2007
cur table: 2022
epoch: 1000
next table: 2481
cur table: 2463
epoch: 1000
next table: 1976
cur table: 2007
epoch: 1000
next table: 2416
cur table: 2481
epoch: 1000
next table: 1988
cur table: 1976
epoch: 1000
next table: 2556
cur table: 2416
epoch: 1000
next table: 1878
cur table: 1988
epoch: 1000
next table: 2549
cur table: 2556
epoch: 1000
next table: 1814
cur table: 1878
epoch: 1000
next table: 2529
cur table: 2549
epoch: 1000
next table: 1815
cur table: 1814
epoch: 1000
next table: 2509
cur table: 2529
epoch: 1000
next table: 1850
cur table: 1815
epoch: 1000
next table: 2593
cur table: 2509
epoch: 1000
next table: 1773
cur table: 1850
epoch: 1000
next table: 2567
cur table: 2593
epoch: 1000
next table: 1803
cur table: 1773
epoch: 1000
next table: 2609
cur table: 2567
epoch: 1000
next table: 1798
cur table: 1803
epoch: 1000
next table: 2593
cur table: 2609
epoch: 1000
next table: 1791
cur table: 1798
epoch: 1000
next table: 2657
cur table: 2593
epoch: 1000
next table: 1795
cur table: 1791
epoch: 1000
next table: 2541
cur table: 2657
epoch: 1000
next table: 1814
cur table: 1795
epoch: 1000
next table: 2597
cur table: 2541
epoch: 1000
next table: 2501
cur table: 2597
epoch: 1000
next table: 1853
cur table: 1814
epoch: 1000
next table: 2529
cur table: 2501
epoch: 1000
next table: 1874
cur table: 1853
epoch: 1000
next table: 2496
cur table: 2529
epoch: 1000
next table: 1874
cur table: 1874
epoch: 1000
next table: 2505
cur table: 2496
epoch: 1000
next table: 1830
cur table: 1874
epoch: 1000
next table: 2519
cur table: 2505
epoch: 1000
next table: 1886
cur table: 1830
epoch: 1000
next table: 2488
cur table: 2519
epoch: 1000
next table: 1847
cur table: 1886
epoch: 1000
next table: 2525
cur table: 2488
epoch: 1000
next table: 1870
cur table: 1847
epoch: 1000
next table: 2464
cur table: 2525
epoch: 1000
next table: 1826
cur table: 1870
epoch: 1000
next table: 2548
cur table: 2464
epoch: 1000
next table: 1865
cur table: 1826
epoch: 1000
next table: 2492
cur table: 2548
epoch: 1000
next table: 1880
cur table: 1865
epoch: 1000
next table: 2514
cur table: 2492
epoch: 1000
next table: 2461
cur table: 2514
epoch: 1000
next table: 1877
cur table: 1880
epoch: 1000
next table: 2505
cur table: 2461
epoch: 1000
next table: 1843
cur table: 1877
epoch: 1000
next table: 2515
cur table: 2505
epoch: 1000
next table: 1868
cur table: 1843
epoch: 1000
next table: 2484
cur table: 2515
epoch: 1000
next table: 1864
cur table: 1868
epoch: 1000
next table: 2529
cur table: 2484
epoch: 1000
next table: 1855
cur table: 1864
epoch: 1000
next table: 2493
cur table: 2529
epoch: 1000
next table: 1845
cur table: 1855
epoch: 1000
next table: 2555
cur table: 2493
epoch: 1000
next table: 1850
cur table: 1845
epoch: 1000
next table: 2540
cur table: 2555
epoch: 1000
next table: 1833
cur table: 1850
epoch: 1000
next table: 2512
cur table: 2540
epoch: 1000
next table: 1812
cur table: 1833
epoch: 1000
next table: 2589
cur table: 2512
epoch: 1000
next table: 1818
cur table: 1812
epoch: 1000
next table: 2601
cur table: 2589
epoch: 1000
next table: 1781
cur table: 1818
epoch: 1000
next table: 2671
cur table: 2601
epoch: 1000
next table: 1797
cur table: 1781
epoch: 1000
next table: 2571
cur table: 2671
epoch: 1000
next table: 1842
cur table: 1797
epoch: 1000
next table: 2538
cur table: 2571
epoch: 1000
next table: 1846
cur table: 1842
epoch: 1000
next table: 2522
cur table: 2538
epoch: 1000
next table: 2569
cur table: 2522
epoch: 1000
next table: 1820
cur table: 1846
epoch: 1000
next table: 2499
cur table: 2569
epoch: 1000
next table: 1866
cur table: 1820
epoch: 1000
next table: 2492
cur table: 2499
epoch: 1000
next table: 1854
cur table: 1866
epoch: 1000
next table: 2548
cur table: 2492
epoch: 1000
next table: 1834
cur table: 1854
epoch: 1000
next table: 2575
cur table: 2548
epoch: 1000
next table: 1815
cur table: 1834
epoch: 1000
next table: 2548
cur table: 2575
epoch: 1000
next table: 1854
cur table: 1815
epoch: 1000
next table: 2534
cur table: 2548
epoch: 1000
next table: 1830
cur table: 1854
epoch: 1000
next table: 2568
cur table: 2534
epoch: 1000
next table: 1826
cur table: 1830
epoch: 1000
next table: 2511
cur table: 2568
epoch: 1000
next table: 1841
cur table: 1826
epoch: 1000
next table: 2557
cur table: 2511
epoch: 1000
next table: 1835
cur table: 1841
epoch: 1000
next table: 2526
cur table: 2557
epoch: 1000
next table: 1874
cur table: 1835
epoch: 1000
next table: 2507
cur table: 2526
epoch: 1000
next table: 1807
cur table: 1874
epoch: 1000
next table: 2606
cur table: 2507
epoch: 1000
next table: 1842
cur table: 1807
epoch: 1000
next table: 2509
cur table: 2606
epoch: 1000
next table: 2564
cur table: 2509
epoch: 1000
next table: 1822
cur table: 1842
epoch: 1000
next table: 2595
cur table: 2564
epoch: 1000
next table: 1805
cur table: 1822
epoch: 1000
next table: 2643
cur table: 2595
epoch: 1000
next table: 1762
cur table: 1805
epoch: 1000
next table: 2653
cur table: 2643
epoch: 1000
next table: 1790
cur table: 1762
epoch: 1000
next table: 2516
cur table: 2653
epoch: 1000
next table: 1834
cur table: 1790
epoch: 1000
next table: 2484
cur table: 2516
epoch: 1000
next table: 1889
cur table: 1834
epoch: 1000
next table: 2514
cur table: 2484
epoch: 1000
next table: 1858
cur table: 1889
epoch: 1000
next table: 2533
cur table: 2514
epoch: 1000
next table: 1831
cur table: 1858
epoch: 1000
next table: 2632
cur table: 2533
epoch: 1000
next table: 1780
cur table: 1831
epoch: 1000
next table: 2574
cur table: 2632
epoch: 1000
next table: 1807
cur table: 1780
epoch: 1000
next table: 2624
cur table: 2574
epoch: 1000
next table: 1798
cur table: 1807
epoch: 1000
next table: 2614
cur table: 2624
epoch: 1000
next table: 1803
cur table: 1798
epoch: 1000
next table: 2584
cur table: 2614
epoch: 1000
next table: 1812
cur table: 1803
epoch: 1000
next table: 2502
cur table: 2584
epoch: 1000
next table: 1884
cur table: 1812
epoch: 1000
next table: 2487
cur table: 2502
epoch: 1000
next table: 1831
cur table: 1884
epoch: 1000
next table: 2585
cur table: 2487
epoch: 1000
next table: 1849
cur table: 1831
epoch: 1000
next table: 2515
cur table: 2585
epoch: 1000
next table: 1820
cur table: 1849
epoch: 1000
next table: 2535
cur table: 2515
epoch: 1000
next table: 2498
cur table: 2535
epoch: 1000
next table: 1870
cur table: 1820
epoch: 1000
next table: 2539
cur table: 2498
epoch: 1000
next table: 1855
cur table: 1870
epoch: 1000
next table: 2498
cur table: 2539
epoch: 1000
next table: 1836
cur table: 1855
epoch: 1000
next table: 2487
cur table: 2498
epoch: 1000
next table: 1859
cur table: 1836
epoch: 1000
next table: 2498
cur table: 2487
epoch: 1000
next table: 1885
cur table: 1859
epoch: 1000
next table: 2497
cur table: 2498
epoch: 1000
next table: 1852
cur table: 1885
epoch: 1000
next table: 2531
cur table: 2497
epoch: 1000
next table: 1848
cur table: 1852
epoch: 1000
next table: 2520
cur table: 2531
epoch: 1000
next table: 1811
cur table: 1848
epoch: 1000
next table: 2632
cur table: 2520
epoch: 1000
next table: 1791
cur table: 1811
epoch: 1000
next table: 2619
cur table: 2632
epoch: 1000
next table: 1787
cur table: 1791
epoch: 1000
next table: 2617
cur table: 2619
epoch: 1000
next table: 1786
cur table: 1787
epoch: 1000
next table: 2577
cur table: 2617
epoch: 1000
next table: 1837
cur table: 1786
epoch: 1000
next table: 2491
cur table: 2577
epoch: 1000
next table: 1859
cur table: 1837
epoch: 1000
next table: 2526
cur table: 2491
epoch: 1000
next table: 1867
cur table: 1859
epoch: 1000
next table: 2495
cur table: 2526
epoch: 1000
next table: 2500
cur table: 2495
epoch: 1000
next table: 1862
cur table: 1867
epoch: 1000
next table: 2536
cur table: 2500
epoch: 1000
next table: 1848
cur table: 1862
epoch: 1000
next table: 2491
cur table: 2536
epoch: 1000
next table: 1883
cur table: 1848
epoch: 1000
next table: 2519
cur table: 2491
epoch: 1000
next table: 1812
cur table: 1883
epoch: 1000
next table: 2673
cur table: 2519
epoch: 1000
next table: 1777
cur table: 1812
epoch: 1000
next table: 2611
cur table: 2673
epoch: 1000
next table: 1788
cur table: 1777
epoch: 1000
next table: 2593
cur table: 2611
epoch: 1000
next table: 1816
cur table: 1788
epoch: 1000
next table: 2506
cur table: 2593
epoch: 1000
next table: 1873
cur table: 1816
epoch: 1000
next table: 2492
cur table: 2506
epoch: 1000
next table: 1846
cur table: 1873
epoch: 1000
next table: 2512
cur table: 2492
epoch: 1000
next table: 1845
cur table: 1846
epoch: 1000
next table: 2505
cur table: 2512
epoch: 1000
next table: 1873
cur table: 1845
epoch: 1000
next table: 2535
cur table: 2505
epoch: 1000
next table: 1841
cur table: 1873
epoch: 1000
next table: 2545
cur table: 2535
epoch: 1000
next table: 1833
cur table: 1841
epoch: 1000
next table: 2553
cur table: 2545
epoch: 1000
next table: 2514
cur table: 2553
epoch: 1000
next table: 1827
cur table: 1833
epoch: 1000
next table: 2556
cur table: 2514
epoch: 1000
next table: 1844
cur table: 1827
epoch: 1000
next table: 2580
cur table: 2556
epoch: 1000
next table: 1831
cur table: 1844
epoch: 1000
next table: 2532
cur table: 2580
epoch: 1000
next table: 1824
cur table: 1831
epoch: 1000
next table: 2527
cur table: 2532
epoch: 1000
next table: 1821
cur table: 1824
epoch: 1000
next table: 2533
cur table: 2527
epoch: 1000
next table: 1856
cur table: 1821
epoch: 1000
next table: 2589
cur table: 2533
epoch: 1000
next table: 1819
cur table: 1856
epoch: 1000
next table: 2562
cur table: 2589
epoch: 1000
next table: 1837
cur table: 1819
epoch: 1000
next table: 2503
cur table: 2562
epoch: 1000
next table: 1845
cur table: 1837
epoch: 1000
next table: 2533
cur table: 2503
epoch: 1000
next table: 1870
cur table: 1845
epoch: 1000
next table: 2492
cur table: 2533
epoch: 1000
next table: 1863
cur table: 1870
epoch: 1000
next table: 2526
cur table: 2492
epoch: 1000
next table: 1909
cur table: 1863
epoch: 1000
next table: 2452
cur table: 2526
epoch: 1000
next table: 2518
cur table: 2452
epoch: 1000
next table: 1852
cur table: 1909
epoch: 1000
next table: 2554
cur table: 2518
epoch: 1000
next table: 1830
cur table: 1852
epoch: 1000
next table: 2561
cur table: 2554
epoch: 1000
next table: 1839
cur table: 1830
epoch: 1000
next table: 2501
cur table: 2561
epoch: 1000
next table: 1856
cur table: 1839
epoch: 1000
next table: 2515
cur table: 2501
epoch: 1000
next table: 1836
cur table: 1856
epoch: 1000
next table: 2597
cur table: 2515
epoch: 1000
next table: 1814
cur table: 1836
epoch: 1000
next table: 2488
cur table: 2597
epoch: 1000
next table: 1867
cur table: 1814
epoch: 1000
next table: 2563
cur table: 2488
epoch: 1000
next table: 1848
cur table: 1867
epoch: 1000
next table: 2500
cur table: 2563
epoch: 1000
next table: 1853
cur table: 1848
epoch: 1000
next table: 2504
cur table: 2500
epoch: 1000
next table: 1812
cur table: 1853
epoch: 1000
next table: 2597
cur table: 2504
epoch: 1000
next table: 1839
cur table: 1812
epoch: 1000
next table: 2533
cur table: 2597
epoch: 1000
next table: 1830
cur table: 1839
epoch: 1000
next table: 2561
cur table: 2533
epoch: 1000
next table: 1822
cur table: 1830
epoch: 1000
next table: 2560
cur table: 2561
epoch: 1000
next table: 1826
cur table: 1822
epoch: 1000
next table: 2580
cur table: 2560
epoch: 1000
next table: 2526
cur table: 2580
epoch: 1000
next table: 1839
cur table: 1826
epoch: 1000
next table: 2538
cur table: 2526
epoch: 1000
next table: 1835
cur table: 1839
epoch: 1000
next table: 2552
cur table: 2538
epoch: 1000
next table: 1859
cur table: 1835
epoch: 1000
next table: 2607
cur table: 2552
epoch: 1000
next table: 1777
cur table: 1859
epoch: 1000
next table: 2611
cur table: 2607
epoch: 1000
next table: 1781
cur table: 1777
epoch: 1000
next table: 2638
cur table: 2611
epoch: 1000
next table: 1758
cur table: 1781
epoch: 1000
next table: 2665
cur table: 2638
epoch: 1000
next table: 1811
cur table: 1758
epoch: 1000
next table: 2511
cur table: 2665
epoch: 1000
next table: 1858
cur table: 1811
epoch: 1000
next table: 2476
cur table: 2511
epoch: 1000
next table: 1873
cur table: 1858
epoch: 1000
next table: 2507
cur table: 2476
epoch: 1000
next table: 1845
cur table: 1873
epoch: 1000
next table: 2497
cur table: 2507
epoch: 1000
next table: 1852
cur table: 1845
epoch: 1000
next table: 2516
cur table: 2497
epoch: 1000
next table: 1832
cur table: 1852
epoch: 1000
next table: 2517
cur table: 2516
epoch: 1000
next table: 1831
cur table: 1832
epoch: 1000
next table: 2548
cur table: 2517
epoch: 1000
next table: 1848
cur table: 1831
epoch: 1000
next table: 2476
cur table: 2548
epoch: 1000
next table: 1874
cur table: 1848
epoch: 1000
next table: 2482
cur table: 2476
epoch: 1000
next table: 2518
cur table: 2482
epoch: 1000
next table: 1871
cur table: 1874
epoch: 1000
next table: 2485
cur table: 2518
epoch: 1000
next table: 1862
cur table: 1871
epoch: 1000
next table: 2522
cur table: 2485
epoch: 1000
next table: 1823
cur table: 1862
epoch: 1000
next table: 2518
cur table: 2522
epoch: 1000
next table: 1894
cur table: 1823
epoch: 1000
next table: 2441
cur table: 2518
epoch: 1000
next table: 1875
cur table: 1894
epoch: 1000
next table: 2390
cur table: 2441
epoch: 1000
next table: 1888
cur table: 1875
epoch: 1000
next table: 2493
cur table: 2390
epoch: 1000
next table: 1852
cur table: 1888
epoch: 1000
next table: 2405
cur table: 2493
epoch: 1000
next table: 1911
cur table: 1852
epoch: 1000
next table: 2390
cur table: 2405
epoch: 1000
next table: 1886
cur table: 1911
epoch: 1000
next table: 2446
cur table: 2390
epoch: 1000
next table: 2294
cur table: 2446
epoch: 1000
next table: 1963
cur table: 1886
epoch: 1000
next table: 2493
cur table: 2294
epoch: 1000
next table: 1860
cur table: 1963
epoch: 1000
next table: 2414
cur table: 2493
epoch: 1000
next table: 1924
cur table: 1860
epoch: 1000
next table: 2535
cur table: 2414
epoch: 1000
next table: 1847
cur table: 1924
epoch: 1000
next table: 2515
cur table: 2535
epoch: 1000
next table: 1838
cur table: 1847
epoch: 1000
next table: 2429
cur table: 2515
epoch: 1000
next table: 1902
cur table: 1838
epoch: 1000
next table: 2542
cur table: 2429
epoch: 1000
next table: 1833
cur table: 1902
epoch: 1000
next table: 2499
cur table: 2542
epoch: 1000
next table: 1808
cur table: 1833
epoch: 1000
next table: 2533
cur table: 2499
epoch: 1000
next table: 1787
cur table: 1808
epoch: 1000
next table: 2572
cur table: 2533
epoch: 1000
next table: 1812
cur table: 1787
epoch: 1000
next table: 2570
cur table: 2572
epoch: 1000
next table: 1779
cur table: 1812
epoch: 1000
next table: 2631
cur table: 2570
epoch: 1000
next table: 1767
cur table: 1779
epoch: 1000
next table: 2589
cur table: 2631
epoch: 1000
next table: 1830
cur table: 1767
epoch: 1000
next table: 2496
cur table: 2589
epoch: 1000
next table: 1853
cur table: 1830
epoch: 1000
next table: 2482
cur table: 2496
epoch: 1000
next table: 1834
cur table: 1853
epoch: 1000
next table: 2484
cur table: 2482
epoch: 1000
next table: 2516
cur table: 2484
epoch: 1000
next table: 1822
cur table: 1834
epoch: 1000
next table: 2511
cur table: 2516
epoch: 1000
next table: 1839
cur table: 1822
epoch: 1000
next table: 2618
cur table: 2511
epoch: 1000
next table: 1801
cur table: 1839
epoch: 1000
next table: 2596
cur table: 2618
epoch: 1000
next table: 1786
cur table: 1801
epoch: 1000
next table: 2581
cur table: 2596
epoch: 1000
next table: 1810
cur table: 1786
epoch: 1000
next table: 2575
cur table: 2581
epoch: 1000
next table: 1852
cur table: 1810
epoch: 1000
next table: 2526
cur table: 2575
epoch: 1000
next table: 1810
cur table: 1852
epoch: 1000
next table: 2514
cur table: 2526
epoch: 1000
next table: 1838
cur table: 1810
epoch: 1000
next table: 2546
cur table: 2514
epoch: 1000
next table: 1827
cur table: 1838
epoch: 1000
next table: 2603
cur table: 2546
epoch: 1000
next table: 1802
cur table: 1827
epoch: 1000
next table: 2516
cur table: 2603
epoch: 1000
next table: 1818
cur table: 1802
epoch: 1000
next table: 2591
cur table: 2516
epoch: 1000
next table: 1811
cur table: 1818
epoch: 1000
next table: 2590
cur table: 2591
epoch: 1000
next table: 1818
cur table: 1811
epoch: 1000
next table: 2610
cur table: 2590
epoch: 1000
next table: 1806
cur table: 1818
epoch: 1000
next table: 2490
cur table: 2610
epoch: 1000
next table: 1874
cur table: 1806
epoch: 1000
next table: 2442
cur table: 2490
epoch: 1000
next table: 1909
cur table: 1874
epoch: 1000
next table: 2406
cur table: 2442
epoch: 1000
next table: 2391
cur table: 2406
epoch: 1000
next table: 1897
cur table: 1909
epoch: 1000
next table: 2555
cur table: 2391
epoch: 1000
next table: 1804
cur table: 1897
epoch: 1000
next table: 2453
cur table: 2555
epoch: 1000
next table: 1858
cur table: 1804
epoch: 1000
next table: 2504
cur table: 2453
epoch: 1000
next table: 1816
cur table: 1858
epoch: 1000
next table: 2570
cur table: 2504
epoch: 1000
next table: 1801
cur table: 1816
epoch: 1000
next table: 2602
cur table: 2570
epoch: 1000
next table: 1772
cur table: 1801
epoch: 1000
next table: 2614
cur table: 2602
epoch: 1000
next table: 1765
cur table: 1772
epoch: 1000
next table: 2658
cur table: 2614
epoch: 1000
next table: 1804
cur table: 1765
epoch: 1000
next table: 2594
cur table: 2658
epoch: 1000
next table: 1770
cur table: 1804
epoch: 1000
next table: 2645
cur table: 2594
epoch: 1000
next table: 1788
cur table: 1770
epoch: 1000
next table: 2616
cur table: 2645
epoch: 1000
next table: 1779
cur table: 1788
epoch: 1000
next table: 2555
cur table: 2616
epoch: 1000
next table: 1854
cur table: 1779
epoch: 1000
next table: 2500
cur table: 2555
epoch: 1000
next table: 1812
cur table: 1854
epoch: 1000
next table: 2471
cur table: 2500
epoch: 1000
next table: 1920
cur table: 1812
epoch: 1000
next table: 2350
cur table: 2471
epoch: 1000
next table: 1874
cur table: 1920
epoch: 1000
next table: 2457
cur table: 2350
epoch: 1000
next table: 1895
cur table: 1874
epoch: 1000
next table: 2421
cur table: 2457
epoch: 1000
next table: 1898
cur table: 1895
epoch: 1000
next table: 2413
cur table: 2421
epoch: 1000
next table: 2366
cur table: 2413
epoch: 1000
next table: 1928
cur table: 1898
epoch: 1000
next table: 2429
cur table: 2366
epoch: 1000
next table: 1878
cur table: 1928
epoch: 1000
next table: 2419
cur table: 2429
epoch: 1000
next table: 1863
cur table: 1878
Heartbeat CPU 0 instructions: 40000001 cycles: 10940736 heartbeat IPC: 3.65407 cumulative IPC: 3.65606 (Simulation time: 0 hr 20 min 10 sec) 
epoch: 1000
next table: 2407
cur table: 2419
epoch: 1000
next table: 1916
cur table: 1863
epoch: 1000
next table: 2435
cur table: 2407
epoch: 1000
next table: 1875
cur table: 1916
epoch: 1000
next table: 2454
cur table: 2435
epoch: 1000
next table: 1902
cur table: 1875
epoch: 1000
next table: 2432
cur table: 2454
epoch: 1000
next table: 1915
cur table: 1902
epoch: 1000
next table: 2380
cur table: 2432
epoch: 1000
next table: 1903
cur table: 1915
epoch: 1000
next table: 2432
cur table: 2380
epoch: 1000
next table: 2441
cur table: 2432
epoch: 1000
next table: 1885
cur table: 1903
epoch: 1000
next table: 2420
cur table: 2441
epoch: 1000
next table: 1906
cur table: 1885
epoch: 1000
next table: 2472
cur table: 2420
epoch: 1000
next table: 1844
cur table: 1906
epoch: 1000
next table: 2404
cur table: 2472
epoch: 1000
next table: 1889
cur table: 1844
epoch: 1000
next table: 2483
cur table: 2404
epoch: 1000
next table: 1829
cur table: 1889
epoch: 1000
[...]
cur table: 1820
epoch: 1000
next table: 2482
cur table: 2500
epoch: 1000
next table: 1862
cur table: 1844
epoch: 1000
next table: 2468
cur table: 2482
epoch: 1000
next table: 1829
cur table: 1862
epoch: 1000
next table: 2466
cur table: 2468
epoch: 1000
next table: 1836
cur table: 1829
epoch: 1000
next table: 2489
cur table: 2466
epoch: 1000
next table: 1816
cur table: 1836
epoch: 1000
next table: 2575
cur table: 2489
epoch: 1000
next table: 2549
cur table: 2575
epoch: 1000
next table: 1814
cur table: 1816
epoch: 1000
next table: 2777
cur table: 2549
epoch: 1000
next table: 1796
cur table: 1814
epoch: 1000
next table: 2550
cur table: 2777
epoch: 1000
next table: 1796
cur table: 1796
epoch: 1000
next table: 2500
cur table: 2550
epoch: 1000
next table: 1844
cur table: 1796
epoch: 1000
next table: 2499
cur table: 2500
epoch: 1000
next table: 1842
cur table: 1844
epoch: 1000
next table: 2537
cur table: 2499
epoch: 1000
next table: 1933
cur table: 1842
epoch: 1000
next table: 2376
cur table: 2537
epoch: 1000
next table: 1923
cur table: 1933
epoch: 1000
next table: 2450
cur table: 2376
epoch: 1000
next table: 1871
cur table: 1923
epoch: 1000
next table: 2461
cur table: 2450
epoch: 1000
next table: 1855
cur table: 1871
epoch: 1000
next table: 2447
cur table: 2461
epoch: 1000
next table: 1882
cur table: 1855
epoch: 1000
next table: 2450
cur table: 2447
epoch: 1000
next table: 1875
cur table: 1882
epoch: 1000
next table: 2433
cur table: 2450
epoch: 1000
next table: 1851
cur table: 1875
epoch: 1000
next table: 2532
cur table: 2433
epoch: 1000
next table: 1786
cur table: 1851
epoch: 1000
next table: 2566
cur table: 2532
epoch: 1000
next table: 2432
cur table: 2566
epoch: 1000
next table: 1886
cur table: 1786
epoch: 1000
next table: 2506
cur table: 2432
epoch: 1000
next table: 1849
cur table: 1886
epoch: 1000
next table: 2470
cur table: 2506
epoch: 1000
next table: 1892
cur table: 1849
epoch: 1000
next table: 2390
cur table: 2470
epoch: 1000
next table: 1870
cur table: 1892
epoch: 1000
next table: 2467
cur table: 2390
epoch: 1000
next table: 1896
cur table: 1870
epoch: 1000
next table: 2509
cur table: 2467
epoch: 1000
next table: 1841
cur table: 1896
epoch: 1000
next table: 2541
cur table: 2509
epoch: 1000
next table: 1805
cur table: 1841
epoch: 1000
next table: 2935
cur table: 2541
epoch: 1000
next table: 1799
cur table: 1805
epoch: 1000
next table: 2622
cur table: 2935
epoch: 1000
next table: 1839
cur table: 1799
epoch: 1000
next table: 2716
cur table: 2622
epoch: 1000
next table: 1787
cur table: 1839
epoch: 1000
next table: 2678
cur table: 2716
epoch: 1000
next table: 1837
cur table: 1787
epoch: 1000
next table: 2511
cur table: 2678
epoch: 1000
next table: 1855
cur table: 1837
epoch: 1000
next table: 2520
cur table: 2511
epoch: 1000
next table: 2715
cur table: 2520
epoch: 1000
next table: 1831
cur table: 1855
epoch: 1000
next table: 2645
cur table: 2715
epoch: 1000
next table: 1753
cur table: 1831
epoch: 1000
next table: 2656
cur table: 2645
epoch: 1000
next table: 1758
cur table: 1753
epoch: 1000
next table: 2691
cur table: 2656
epoch: 1000
next table: 1759
cur table: 1758
epoch: 1000
next table: 2650
cur table: 2691
epoch: 1000
next table: 1773
cur table: 1759
epoch: 1000
next table: 2720
cur table: 2650
epoch: 1000
next table: 1793
cur table: 1773
epoch: 1000
next table: 2633
cur table: 2720
epoch: 1000
next table: 1774
cur table: 1793
Heartbeat CPU 0 instructions: 100000000 cycles: 67191483 heartbeat IPC: 0.952 cumulative IPC: 0.934334 (Simulation time: 0 hr 43 min 23 sec) 
Finished CPU 0 instructions: 50000000 cycles: 53514060 cumulative IPC: 0.934334 (Simulation time: 0 hr 43 min 23 sec) 

ChampSim completed all CPUs

Region of Interest Statistics

CPU 0 cumulative IPC: 0.934334 instructions: 50000000 cycles: 53514060
ITLB TOTAL     ACCESS:    6471526  HIT:    6471526  MISS:          0  HIT %:        100  MISS %:          0   MPKI: 0
ITLB LOAD TRANSLATION ACCESS:    6471526  HIT:    6471526  MISS:          0  HIT %:        100  MISS %:          0   MPKI: 0
ITLB PREFETCH  REQUESTED:          0  ISSUED:          0  USEFUL:          0  USELESS:          0
ITLB USEFUL LOAD PREFETCHES:          0 PREFETCH ISSUED TO LOWER LEVEL:          0  ACCURACY: -nan
ITLB TIMELY PREFETCHES:          0 LATE PREFETCHES: 0 DROPPED PREFETCHES: 0
ITLB PREFETCHES SAME FILL-ORIGIN LEVEL: 0 DIFFERENT FILL-ORIGIN LEVEL: 0
ITLB AVERAGE MISS LATENCY: -nan cycles
ITLB RQ	ACCESS:    8486137	FORWARD:          0	MERGED:    2014611	TO_CACHE:    6471526

Revised Interactions: positive negative neutral
ITLB_interactions 0 0 0 -nan -nan -nan
DTLB TOTAL     ACCESS:    9171630  HIT:    9140627  MISS:      31003  HIT %:     99.662  MISS %:   0.338032   MPKI: 0.62006
DTLB LOAD TRANSLATION ACCESS:    9171630  HIT:    9140627  MISS:      31003  HIT %:     99.662  MISS %:   0.338032   MPKI: 0.62006
DTLB PREFETCH  REQUESTED:          0  ISSUED:          0  USEFUL:          0  USELESS:          0
DTLB USEFUL LOAD PREFETCHES:          0 PREFETCH ISSUED TO LOWER LEVEL:          0  ACCURACY: -nan
DTLB TIMELY PREFETCHES:          0 LATE PREFETCHES: 0 DROPPED PREFETCHES: 0
DTLB PREFETCHES SAME FILL-ORIGIN LEVEL: 0 DIFFERENT FILL-ORIGIN LEVEL: 0
DTLB AVERAGE MISS LATENCY: 96.8682 cycles
DTLB RQ	ACCESS:   13671563	FORWARD:          0	MERGED:    4495964	TO_CACHE:    9175599

Revised Interactions: positive negative neutral
DTLB_interactions 0 0 0 -nan -nan -nan
STLB TOTAL     ACCESS:      31003  HIT:      14183  MISS:      16820  HIT %:    45.7472  MISS %:    54.2528   MPKI: 0.3364
STLB LOAD TRANSLATION ACCESS:      31003  HIT:      14183  MISS:      16820  HIT %:    45.7472  MISS %:    54.2528   MPKI: 0.3364
STLB PREFETCH  REQUESTED:          0  ISSUED:          0  USEFUL:          0  USELESS:          0
STLB USEFUL LOAD PREFETCHES:          0 PREFETCH ISSUED TO LOWER LEVEL:          0  ACCURACY: -nan
STLB TIMELY PREFETCHES:          0 LATE PREFETCHES: 0 DROPPED PREFETCHES: 0
STLB PREFETCHES SAME FILL-ORIGIN LEVEL: 0 DIFFERENT FILL-ORIGIN LEVEL: 0
STLB AVERAGE MISS LATENCY: 161.294 cycles
STLB RQ	ACCESS:      31003	FORWARD:          0	MERGED:          0	TO_CACHE:      31003

Revised Interactions: positive negative neutral
STLB_interactions 0 0 0 -nan -nan -nan
STLB Hit, L1D data hit: 0
STLB Hit, L2C data hit: 0
STLB Hit, LLC data hit: 0
STLB Hit, LLC data miss: 0
STLB STLB hints to L2: 0
L1D TOTAL     ACCESS:   13573596  HIT:   11797815  MISS:    1775781  HIT %:    86.9174  MISS %:    13.0826   MPKI: 35.5156
L1D LOAD      ACCESS:    6149146  HIT:    5880085  MISS:     269061  HIT %:    95.6244  MISS %:    4.37558   MPKI: 5.38122
L1D RFO       ACCESS:    7424450  HIT:    5917730  MISS:    1506720  HIT %:     79.706  MISS %:     20.294   MPKI: 30.1344
L1D PREFETCH  REQUESTED:          0  ISSUED:          0  USEFUL:          0  USELESS:          0
L1D USEFUL LOAD PREFETCHES:          0 PREFETCH ISSUED TO LOWER LEVEL:          0  ACCURACY: -nan
L1D TIMELY PREFETCHES:          0 LATE PREFETCHES: 0 DROPPED PREFETCHES: 0
L1D PREFETCHES SAME FILL-ORIGIN LEVEL: 0 DIFFERENT FILL-ORIGIN LEVEL: 0
L1D AVERAGE MISS LATENCY: 242.614 cycles
L1D RQ	ACCESS:   11258549	FORWARD:          0	MERGED:    4857750	TO_CACHE:    6239469
L1D WQ	ACCESS:    7438276	FORWARD:     161330	MERGED:       6182	TO_CACHE:    7432094

Revised Interactions: positive negative neutral
L1D_interactions 0 0 0 -nan -nan -nan
L1D UNIQUE REGIONS ACCESSED: 0
L1D REGIONS CONFLICTS: 0
L1D Cross Page Prefetch Requests: 0
L1D Same Page Prefetch Requests: 0
L1D ROI Sum of L1D PQ occupancy: 0
L1D PREFETCHES PUSHED FROM L2C: 0
L1I TOTAL     ACCESS:    8486136  HIT:    8486136  MISS:          0  HIT %:        100  MISS %:          0   MPKI: 0
L1I LOAD      ACCESS:    8486136  HIT:    8486136  MISS:          0  HIT %:        100  MISS %:          0   MPKI: 0
L1I PREFETCH  REQUESTED:          0  ISSUED:          0  USEFUL:          0  USELESS:          0
L1I USEFUL LOAD PREFETCHES:          0 PREFETCH ISSUED TO LOWER LEVEL:          0  ACCURACY: -nan
L1I TIMELY PREFETCHES:          0 LATE PREFETCHES: 0 DROPPED PREFETCHES: 0
L1I PREFETCHES SAME FILL-ORIGIN LEVEL: 0 DIFFERENT FILL-ORIGIN LEVEL: 0
L1I AVERAGE MISS LATENCY: -nan cycles
L1I RQ	ACCESS:   11902942	FORWARD:          0	MERGED:    3416805	TO_CACHE:    8486137

Revised Interactions: positive negative neutral
L1I_interactions 0 0 0 -nan -nan -nan
BTB TOTAL     ACCESS:     534175  HIT:     534169  MISS:          6  HIT %:    99.9989  MISS %: 0.00112323   MPKI: 0.00012
BTB BRANCH_DIRECT_JUMP	ACCESS:       1868  HIT:       1867  MISS:          1
BTB BRANCH_INDIRECT	ACCESS:          0  HIT:          0  MISS:          0
BTB BRANCH_CONDITIONAL	ACCESS:     532307  HIT:     532302  MISS:          5
BTB BRANCH_DIRECT_CALL	ACCESS:          0  HIT:          0  MISS:          0
BTB BRANCH_INDIRECT_CALL	ACCESS:          0  HIT:          0  MISS:          0
BTB BRANCH_RETURN	ACCESS:          0  HIT:          0  MISS:          0
BTB BRANCH_OTHER ACCESS:          0  HIT:          0  MISS:          0

L2C TOTAL     ACCESS:    3558759  HIT:    2391518  MISS:    1167241  HIT %:    67.2009  MISS %:    32.7991   MPKI: 23.3448
L2C LOAD      ACCESS:     269061  HIT:     252160  MISS:      16901  HIT %:    93.7185  MISS %:    6.28148   MPKI: 0.33802
L2C DATA LOAD MPKI: 0.33802
L2C INSTRUCTION LOAD MPKI: 0
L2C RFO       ACCESS:    1506720  HIT:     634720  MISS:     872000  HIT %:    42.1259  MISS %:    57.8741   MPKI: 17.44
L2C PREFETCH  ACCESS:     259439  HIT:       6877  MISS:     252562  HIT %:    2.65072  MISS %:    97.3493   MPKI: 5.05124
L2C DATA PREFETCH MPKI: 5.05124
L2C INSTRUCTION PREFETCH MPKI: 0
L2C WRITEBACK ACCESS:    1506719  HIT:    1483107  MISS:      23612  HIT %:    98.4329  MISS %:    1.56711   MPKI: 0.47224
L2C LOAD TRANSLATION ACCESS:      16820  HIT:      14654  MISS:       2166  HIT %:    87.1225  MISS %:    12.8775   MPKI: 0.04332
L2C PREFETCH  REQUESTED:     267873  ISSUED:     267873  USEFUL:     252160  USELESS:        401
L2C USEFUL LOAD PREFETCHES:     252160 PREFETCH ISSUED TO LOWER LEVEL:     256100  ACCURACY: 98.4615
L2C TIMELY PREFETCHES:     252160 LATE PREFETCHES: 3538 DROPPED PREFETCHES: 0
L2C PREFETCHES SAME FILL-ORIGIN LEVEL: 256100 DIFFERENT FILL-ORIGIN LEVEL: 0
L2C AVERAGE MISS LATENCY: 465.542 cycles
L2C RQ	ACCESS:    1792605	FORWARD:          0	MERGED:          0	TO_CACHE:    1792605
L2C WQ	ACCESS:    1506719	FORWARD:          0	MERGED:          0	TO_CACHE:    1506719
L2C PQ	ACCESS:     267873	FORWARD:          0	MERGED:          0	TO_CACHE:     267873

Revised Interactions: positive negative neutral
L2C_interactions 238003 276 14178 94.2747 0.109326 5.61601
L2C Instructions Evicting Data 0
L2C Translations Evicting Data 2166
L2C Data Evicting Data 1139348
L2C Instructions Evicting Instructions 0
L2C Translations Evicting Instructions 0
L2C Data Evicting Instructions 0
L2C Instructions Evicting Translations 0
L2C Translations Evicting Translations 0
L2C Data Evicting Translations 2115
L2C Dense regions hint from L2: 0
PSCL5 TOTAL     ACCESS:      16820  HIT:      16820  MISS:          0  HIT %:        100  MISS %:          0   MPKI: 0
PSCL5 LOAD TRANSLATION ACCESS:      16820  HIT:      16820  MISS:          0  HIT %:        100  MISS %:          0   MPKI: 0
PSCL5 PREFETCH  REQUESTED:          0  ISSUED:          0  USEFUL:          0  USELESS:          0
PSCL5 USEFUL LOAD PREFETCHES:          0 PREFETCH ISSUED TO LOWER LEVEL:          0  ACCURACY: -nan
PSCL5 TIMELY PREFETCHES:          0 LATE PREFETCHES: 0 DROPPED PREFETCHES: 0
PSCL5 PREFETCHES SAME FILL-ORIGIN LEVEL: 0 DIFFERENT FILL-ORIGIN LEVEL: 0

Revised Interactions: positive negative neutral
PSCL5_interactions 0 0 0 -nan -nan -nan
PSCL4 TOTAL     ACCESS:      16820  HIT:      16820  MISS:          0  HIT %:        100  MISS %:          0   MPKI: 0
PSCL4 LOAD TRANSLATION ACCESS:      16820  HIT:      16820  MISS:          0  HIT %:        100  MISS %:          0   MPKI: 0
PSCL4 PREFETCH  REQUESTED:          0  ISSUED:          0  USEFUL:          0  USELESS:          0
PSCL4 USEFUL LOAD PREFETCHES:          0 PREFETCH ISSUED TO LOWER LEVEL:          0  ACCURACY: -nan
PSCL4 TIMELY PREFETCHES:          0 LATE PREFETCHES: 0 DROPPED PREFETCHES: 0
PSCL4 PREFETCHES SAME FILL-ORIGIN LEVEL: 0 DIFFERENT FILL-ORIGIN LEVEL: 0

Revised Interactions: positive negative neutral
PSCL4_interactions 0 0 0 -nan -nan -nan
PSCL3 TOTAL     ACCESS:      16820  HIT:      16819  MISS:          1  HIT %:    99.9941  MISS %:  0.0059453   MPKI: 2e-05
PSCL3 LOAD TRANSLATION ACCESS:      16820  HIT:      16819  MISS:          1  HIT %:    99.9941  MISS %:  0.0059453   MPKI: 2e-05
PSCL3 PREFETCH  REQUESTED:          0  ISSUED:          0  USEFUL:          0  USELESS:          0
PSCL3 USEFUL LOAD PREFETCHES:          0 PREFETCH ISSUED TO LOWER LEVEL:          0  ACCURACY: -nan
PSCL3 TIMELY PREFETCHES:          0 LATE PREFETCHES: 0 DROPPED PREFETCHES: 0
PSCL3 PREFETCHES SAME FILL-ORIGIN LEVEL: 0 DIFFERENT FILL-ORIGIN LEVEL: 0

Revised Interactions: positive negative neutral
PSCL3_interactions 0 0 0 -nan -nan -nan
PSCL2 TOTAL     ACCESS:      16820  HIT:      16803  MISS:         17  HIT %:    99.8989  MISS %:    0.10107   MPKI: 0.00034
PSCL2 LOAD TRANSLATION ACCESS:      16820  HIT:      16803  MISS:         17  HIT %:    99.8989  MISS %:    0.10107   MPKI: 0.00034
PSCL2 PREFETCH  REQUESTED:          0  ISSUED:          0  USEFUL:          0  USELESS:          0
PSCL2 USEFUL LOAD PREFETCHES:          0 PREFETCH ISSUED TO LOWER LEVEL:          0  ACCURACY: -nan
PSCL2 TIMELY PREFETCHES:          0 LATE PREFETCHES: 0 DROPPED PREFETCHES: 0
PSCL2 PREFETCHES SAME FILL-ORIGIN LEVEL: 0 DIFFERENT FILL-ORIGIN LEVEL: 0

Revised Interactions: positive negative neutral
PSCL2_interactions 0 0 0 -nan -nan -nan
LLC TOTAL     ACCESS:    2014869  HIT:     220243  MISS:    1794626  HIT %:    10.9309  MISS %:    89.0691   MPKI: 35.8925
LLC LOAD      ACCESS:      13363  HIT:         36  MISS:      13327  HIT %:   0.269401  MISS %:    99.7306   MPKI: 0.26654
LLC RFO       ACCESS:     871992  HIT:      54771  MISS:     817221  HIT %:    6.28114  MISS %:    93.7189   MPKI: 16.3444
LLC PREFETCH  ACCESS:     256100  HIT:        241  MISS:     255859  HIT %:  0.0941039  MISS %:    99.9059   MPKI: 5.11718
LLC WRITEBACK ACCESS:     871248  HIT:     165154  MISS:     706094  HIT %:     18.956  MISS %:     81.044   MPKI: 14.1219
LLC LOAD TRANSLATION ACCESS:       2166  HIT:         41  MISS:       2125  HIT %:    1.89289  MISS %:    98.1071   MPKI: 0.0425
LLC PREFETCH  REQUESTED:          0  ISSUED:          0  USEFUL:         36  USELESS:     255445
LLC USEFUL LOAD PREFETCHES:         36 PREFETCH ISSUED TO LOWER LEVEL:     255859  ACCURACY: 0.0140702
LLC TIMELY PREFETCHES:         36 LATE PREFETCHES: 0 DROPPED PREFETCHES: 0
LLC PREFETCHES SAME FILL-ORIGIN LEVEL: 0 DIFFERENT FILL-ORIGIN LEVEL: 0
LLC AVERAGE MISS LATENCY: 284.091 cycles
LLC RQ	ACCESS:     887533	FORWARD:          0	MERGED:          0	TO_CACHE:     887525
LLC WQ	ACCESS:     871248	FORWARD:          8	MERGED:          0	TO_CACHE:     871248
LLC PQ	ACCESS:     256100	FORWARD:          0	MERGED:          0	TO_CACHE:     256100

Revised Interactions: positive negative neutral
LLC_interactions 63 255455 103068 0.017569 71.2395 28.7429
LLC Dense regions hint to LLC: 0

RAW hits: 411739
Loads Generated: 11670289
Loads sent to L1D: 11258549
Stores Generated: 7438269
Stores sent to L1D: 7438276
Major fault: 0 Minor fault: 20044
Allocated PAGES: 20044
[Bingo] PHT Access: 8860
[Bingo] PHT Hit PC+Addr: 75
[Bingo] PHT Hit PC+Offs: 8745
[Bingo] PHT Miss: 40
[Bingo] Prefetch PC+Addr: 0
[Bingo] Prefetch PC+Offs: 0
[Bingo] Useful PC+Addr: 0
[Bingo] Useful PC+Offs: 0
[Bingo] Useless PC+Addr: 0
[Bingo] Useless PC+Offs: 0
[Bingo] L1 Prefetch per Region: 0
[Bingo] L2 Prefetch per Region: 31.3959
[Bingo] L3 Prefetch per Region: 0
[Bingo] No Prefetch per Region: 0.604082
[Bingo] Number of Voters Mean: 15.7133
[Bingo] Number of Voters SD: 15.7582
PHT read accesses: 138085
PHT write accesses: 8864
AT read accesses: 269065
AT write accesses: 269059
FT read accesses: 26576
FT write accesses: 8860
PS read accesses: 34798
PS write accesses: 8820
PHT tag read accesses: 420872
PHT tag write accesses: 8939
AT tag read accesses: 23299079
AT tag write accesses: 277923
FT tag read accesses: 19251692
FT tag write accesses: 26578
PS tag read accesses: 4595713
PS tag write accesses: 43599

DRAM Statistics
 CHANNEL 0
 RQ ROW_BUFFER_HIT:     129287  ROW_BUFFER_MISS:     958696
 DBUS_CONGESTED:          0
 WQ ROW_BUFFER_HIT:     156284  ROW_BUFFER_MISS:     701405  FULL:       5778

 AVG_CONGESTED_CYCLE: -
 All warmup complete: 2
Channel 0 Bank busy for read cycles: 0
Channel 0 Bank busy for write cycles: 0
Channel 0
Rank 0
0banks busy for read cycles: 23960
0banks busy for write cycles: 0
1banks busy for read cycles: 1149530
1banks busy for write cycles: 90785
2banks busy for read cycles: 2633278
2banks busy for write cycles: 90782
3banks busy for read cycles: 5242992
3banks busy for write cycles: 90780
4banks busy for read cycles: 4228350
4banks busy for write cycles: 90778
5banks busy for read cycles: 7345789
5banks busy for write cycles: 90813
6banks busy for read cycles: 4780610
6banks busy for write cycles: 96735
7banks busy for read cycles: 3272338
7banks busy for write cycles: 1075793
8banks busy for read cycles: 4997640
8banks busy for write cycles: 18213108

CPU 0 Branch Prediction Accuracy: 99.6998% MPKI: 0.03208 Average ROB Occupancy at Mispredict: 35.745
Branch types
NOT_BRANCH: 49465302 98.9306%
BRANCH_DIRECT_JUMP: 1868 0.003736%
BRANCH_INDIRECT: 0 0%
BRANCH_CONDITIONAL: 532501 1.065%
BRANCH_DIRECT_CALL: 0 0%
BRANCH_INDIRECT_CALL: 0 0%
BRANCH_RETURN: 0 0%
BRANCH_OTHER: 0 0%

@sumon_overall_L1D         0         0         0         0         0         0         0
@Sumon_Early_by_class_L1D         0         0         0         0
@Sumon_Late_by_class_L1D         0         0         0         0

@Sumon_Early_by_cycle_L1D         0         0         0         0         0         0         0         0         0         0         0         0
@Sumon_Late_by_cycle_L1D         0         0         0         0         0         0
@Sumon_Early_stream_L1D         0         0         0         0         0         0         0         0         0         0         0         0
@Sumon_Early_CS_L1D         0         0         0         0         0         0         0         0         0         0         0         0
@Sumon_Early_CPLX_L1D         0         0         0         0         0         0         0         0         0         0         0         0
@Sumon_Late_stream_L1D         0         0         0         0         0         0
@Sumon_Late_CS_L1D         0         0         0         0         0         0
@Sumon_Late_CPLX_L1D         0         0         0         0         0         0
@sumon_overall_L2C    252160      3538         0       401    252562    267873    267873
@Sumon_Early_by_class_L2C         0         0         0         0
@Sumon_Late_by_class_L2C         0         0         0         0

@Sumon_Early_by_cycle_L2C       763      7516      4265     14483      6093     93242    123228      2570         0         0         0         0
@Sumon_Late_by_cycle_L2C        23        36        79        96      1890      1414
@Sumon_Early_stream_L2C         0         0         0         0         0         0         0         0         0         0         0         0
@Sumon_Early_CS_L2C         0         0         0         0         0         0         0         0         0         0         0         0
@Sumon_Early_CPLX_L2C         0         0         0         0         0         0         0         0         0         0         0         0
@Sumon_Late_stream_L2C         0         0         0         0         0         0
@Sumon_Late_CS_L2C         0         0         0         0         0         0
@Sumon_Late_CPLX_L2C         0         0         0         0         0         0
DRAM PAGES: 1048576
Allocated PAGES: 20044
