
*** ChampSim Multicore Out-of-Order Simulator ***

Warmup Instructions: 50000000
Simulation Instructions: 50000000
Number of CPUs: 1
LLC sets: 2048
LLC ways: 16
Off-chip DRAM Size: 4096 MB Channels: 1 Width: 64-bit Data Rate: 6400 MT/s
CPU 0 runs ../../biswa/SPEC2017Traces/649.fotonik3d_s-10881B.champsimtrace.xz
.xz
CPU 0 Bimodal branch predictor
BTB has LRU replacement policy
ITLB has LRU replacement policy
DTLB has LRU replacement policy
STLB has LRU replacement policy
L1I has LRU replacement policy
L1D has LRU replacement policy
Bingo PHT WAYS: 16 and PHT_SIZE: 16384
Initialize DRRIP state for L2C
Initialize Hawkeye state
epoch: 1000
next table: 2576
cur table: 9086
epoch: 1000
next table: 2331
cur table: 2576
epoch: 1000
next table: 2156
cur table: 2331
epoch: 1000
next table: 2016
cur table: 2156
epoch: 1000
next table: 2020
cur table: 2016
epoch: 1000
next table: 2034
cur table: 2020
epoch: 1000
next table: 1999
cur table: 2034
epoch: 1000
next table: 2017
cur table: 1999
epoch: 1000
next table: 2037
cur table: 2017
epoch: 1000
next table: 1956
cur table: 2037
epoch: 1000
next table: 1995
cur table: 1956
epoch: 1000
next table: 1988
cur table: 1995
epoch: 1000
next table: 2023
cur table: 1988
epoch: 1000
next table: 2058
cur table: 2023
epoch: 1000
next table: 1968
cur table: 2058
epoch: 1000
next table: 1956
cur table: 1968
epoch: 1000
next table: 1958
cur table: 1956
epoch: 1000
next table: 2052
cur table: 1958
epoch: 1000
next table: 2016
cur table: 2052
epoch: 1000
next table: 2016
cur table: 2016
epoch: 1000
next table: 1991
cur table: 2016
epoch: 1000
next table: 1990
cur table: 1991
epoch: 1000
next table: 1915
cur table: 11471
epoch: 1000
next table: 2007
cur table: 1990
epoch: 1000
next table: 1542
cur table: 1915
epoch: 1000
next table: 2020
cur table: 2007
epoch: 1000
next table: 1961
cur table: 2020
epoch: 1000
next table: 1496
cur table: 1542
epoch: 1000
next table: 1959
cur table: 1961
epoch: 1000
next table: 1474
cur table: 1496
epoch: 1000
next table: 2012
cur table: 1959
epoch: 1000
next table: 2041
cur table: 2012
epoch: 1000
next table: 1426
cur table: 1474
epoch: 1000
next table: 2060
cur table: 2041
epoch: 1000
next table: 1449
cur table: 1426
epoch: 1000
next table: 1986
cur table: 2060
epoch: 1000
next table: 1456
cur table: 1449
epoch: 1000
next table: 1947
cur table: 1986
epoch: 1000
next table: 1993
cur table: 1947
epoch: 1000
next table: 1412
cur table: 1456
epoch: 1000
next table: 2048
cur table: 1993
epoch: 1000
next table: 1444
cur table: 1412
epoch: 1000
next table: 2046
cur table: 2048
epoch: 1000
next table: 1443
cur table: 1444
epoch: 1000
next table: 1982
cur table: 2046
epoch: 1000
next table: 1415
cur table: 1443
epoch: 1000
next table: 1966
cur table: 1982
epoch: 1000
next table: 1987
cur table: 1966
epoch: 1000
next table: 1438
cur table: 1415
epoch: 1000
next table: 2020
cur table: 1987
epoch: 1000
next table: 1442
cur table: 1438
epoch: 1000
next table: 2029
cur table: 2020
epoch: 1000
next table: 1406
cur table: 1442
epoch: 1000
next table: 1966
cur table: 2029
epoch: 1000
next table: 1986
cur table: 1966
epoch: 1000
next table: 1447
cur table: 1406
epoch: 1000
next table: 1988
cur table: 1986
epoch: 1000
next table: 1479
cur table: 1447
epoch: 1000
next table: 2035
cur table: 1988
epoch: 1000
next table: 1399
cur table: 1479
epoch: 1000
next table: 2031
cur table: 2035
epoch: 1000
next table: 1443
cur table: 1399
epoch: 1000
next table: 1956
cur table: 2031
epoch: 1000
next table: 1940
cur table: 1956
epoch: 1000
next table: 1434
cur table: 1443
epoch: 1000
next table: 2008
cur table: 1940
epoch: 1000
next table: 1388
cur table: 1434
epoch: 1000
next table: 2054
cur table: 2008
epoch: 1000
next table: 1411
cur table: 1388
epoch: 1000
next table: 2033
cur table: 2054
epoch: 1000
next table: 1366
cur table: 1411
epoch: 1000
next table: 1989
cur table: 2033
epoch: 1000
next table: 1378
cur table: 1366
epoch: 1000
next table: 1989
cur table: 1989
epoch: 1000
next table: 1956
cur table: 1989
epoch: 1000
next table: 1369
cur table: 1378
epoch: 1000
next table: 2045
cur table: 1956
epoch: 1000
next table: 1370
cur table: 1369
epoch: 1000
next table: 2045
cur table: 2045
epoch: 1000
next table: 1379
cur table: 1370
epoch: 1000
next table: 1983
cur table: 2045
epoch: 1000
next table: 1363
cur table: 1379
epoch: 1000
next table: 1986
cur table: 1983
epoch: 1000
next table: 1372
cur table: 1363
epoch: 1000
next table: 1970
cur table: 1986
epoch: 1000
next table: 1380
cur table: 1372
epoch: 1000
next table: 2022
cur table: 1970
epoch: 1000
next table: 1376
cur table: 1380
epoch: 1000
next table: 2007
cur table: 2022
epoch: 1000
next table: 1393
cur table: 1376
epoch: 1000
next table: 1989
cur table: 2007
epoch: 1000
next table: 2004
cur table: 1989
epoch: 1000
next table: 1407
cur table: 1393
epoch: 1000
next table: 1969
cur table: 2004
epoch: 1000
next table: 1386
cur table: 1407
epoch: 1000
next table: 2043
cur table: 1969
epoch: 1000
next table: 1384
cur table: 1386
epoch: 1000
next table: 2014
cur table: 2043
epoch: 1000
next table: 1377
cur table: 1384
epoch: 1000
next table: 1953
cur table: 2014
epoch: 1000
next table: 1374
cur table: 1377
epoch: 1000
next table: 1989
cur table: 1953
epoch: 1000
next table: 1397
cur table: 1374
epoch: 1000
next table: 1971
cur table: 1989
epoch: 1000
next table: 2072
cur table: 1971
epoch: 1000
next table: 1391
cur table: 1397
epoch: 1000
next table: 2013
cur table: 2072
epoch: 1000
next table: 1416
cur table: 1391
epoch: 1000
next table: 1958
cur table: 2013
epoch: 1000
next table: 1368
cur table: 1416
epoch: 1000
next table: 1991
cur table: 1958
epoch: 1000
next table: 1367
cur table: 1368
epoch: 1000
next table: 1981
cur table: 1991
epoch: 1000
next table: 1369
cur table: 1367
epoch: 1000
next table: 2063
cur table: 1981
epoch: 1000
next table: 1377
cur table: 1369
epoch: 1000
next table: 2006
cur table: 2063
epoch: 1000
next table: 1389
cur table: 1377
epoch: 1000
next table: 1955
cur table: 2006
epoch: 1000
next table: 1990
cur table: 1955
epoch: 1000
next table: 1393
cur table: 1389
epoch: 1000
next table: 1980
cur table: 1990
epoch: 1000
next table: 1371
cur table: 1393
epoch: 1000
next table: 2064
cur table: 1980
epoch: 1000
next table: 1364
cur table: 1371
epoch: 1000
next table: 2004
cur table: 2064
epoch: 1000
next table: 1368
cur table: 1364
epoch: 1000
next table: 1977
cur table: 2004
epoch: 1000
next table: 1370
cur table: 1368
epoch: 1000
next table: 1980
cur table: 1977
epoch: 1000
next table: 1367
cur table: 1370
epoch: 1000
next table: 2002
cur table: 1980
epoch: 1000
next table: 1365
cur table: 1367
epoch: 1000
next table: 2053
cur table: 2002
epoch: 1000
next table: 1360
cur table: 1365
epoch: 1000
next table: 2013
cur table: 2053
epoch: 1000
next table: 1990
cur table: 2013
epoch: 1000
next table: 1409
cur table: 1360
epoch: 1000
next table: 1949
cur table: 1990
epoch: 1000
next table: 1424
cur table: 1409
epoch: 1000
next table: 1989
cur table: 1949
epoch: 1000
next table: 1383
cur table: 1424
epoch: 1000
next table: 2075
cur table: 1989
epoch: 1000
next table: 1376
cur table: 1383
epoch: 1000
next table: 2016
cur table: 2075
epoch: 1000
next table: 1372
cur table: 1376
epoch: 1000
next table: 1988
cur table: 2016
epoch: 1000
next table: 1371
cur table: 1372
epoch: 1000
next table: 1986
cur table: 1988
epoch: 1000
next table: 1382
cur table: 1371
epoch: 1000
next table: 1988
cur table: 1986
epoch: 1000
next table: 2024
cur table: 1988
epoch: 1000
next table: 1369
cur table: 1382
epoch: 1000
next table: 2002
cur table: 2024
epoch: 1000
next table: 1365
cur table: 1369
epoch: 1000
next table: 1985
cur table: 2002
epoch: 1000
next table: 1378
cur table: 1365
epoch: 1000
next table: 1990
cur table: 1985
epoch: 1000
next table: 1362
cur table: 1378
epoch: 1000
next table: 1989
cur table: 1990
epoch: 1000
next table: 1366
cur table: 1362
epoch: 1000
next table: 2040
cur table: 1989
epoch: 1000
next table: 1367
cur table: 1366
epoch: 1000
next table: 2011
cur table: 2040
epoch: 1000
next table: 1375
cur table: 1367
epoch: 1000
next table: 1980
cur table: 2011
epoch: 1000
next table: 1415
cur table: 1375
epoch: 1000
next table: 1986
cur table: 1980
epoch: 1000
next table: 1974
cur table: 1986
epoch: 1000
next table: 1424
cur table: 1415
epoch: 1000
next table: 2054
cur table: 1974
epoch: 1000
next table: 1363
cur table: 1424
epoch: 1000
next table: 2017
cur table: 2054
epoch: 1000
next table: 1364
cur table: 1363
epoch: 1000
next table: 1989
cur table: 2017
epoch: 1000
next table: 1376
cur table: 1364
epoch: 1000
next table: 1963
cur table: 1989
epoch: 1000
next table: 1360
cur table: 1376
epoch: 1000
next table: 1985
cur table: 1963
epoch: 1000
next table: 1358
cur table: 1360
epoch: 1000
next table: 2054
cur table: 1985
epoch: 1000
next table: 1369
cur table: 1358
epoch: 1000
next table: 1982
cur table: 2054
epoch: 1000
next table: 1376
cur table: 1369
epoch: 1000
next table: 1989
cur table: 1982
epoch: 1000
next table: 1987
cur table: 1989
epoch: 1000
next table: 1388
cur table: 1376
epoch: 1000
next table: 1985
cur table: 1987
epoch: 1000
next table: 1374
cur table: 1388
epoch: 1000
next table: 2056
cur table: 1985
epoch: 1000
next table: 1385
cur table: 1374
epoch: 1000
next table: 1994
cur table: 2056
epoch: 1000
next table: 1375
cur table: 1385
epoch: 1000
next table: 1984
cur table: 1994
epoch: 1000
next table: 1368
cur table: 1375
epoch: 1000
next table: 1988
cur table: 1984
epoch: 1000
next table: 1373
cur table: 1368
epoch: 1000
next table: 1978
cur table: 1988
epoch: 1000
next table: 1368
cur table: 1373
epoch: 1000
next table: 2072
cur table: 1978
epoch: 1000
next table: 1990
cur table: 2072
epoch: 1000
next table: 1377
cur table: 1368
epoch: 1000
next table: 1956
cur table: 1990
epoch: 1000
next table: 1361
cur table: 1377
epoch: 1000
next table: 1984
cur table: 1956
epoch: 1000
next table: 1366
cur table: 1361
epoch: 1000
next table: 2002
cur table: 1984
epoch: 1000
next table: 1359
cur table: 1366
epoch: 1000
next table: 2072
cur table: 2002
epoch: 1000
next table: 1371
cur table: 1359
epoch: 1000
next table: 1978
cur table: 2072
epoch: 1000
next table: 1367
cur table: 1371
epoch: 1000
next table: 1985
cur table: 1978
epoch: 1000
next table: 1365
cur table: 1367
epoch: 1000
next table: 1987
cur table: 1985
epoch: 1000
next table: 1363
cur table: 1365
epoch: 1000
next table: 1984
cur table: 1987
epoch: 1000
next table: 1365
cur table: 1363
epoch: 1000
next table: 2070
cur table: 1984
epoch: 1000
next table: 1367
cur table: 1365
epoch: 1000
next table: 1996
cur table: 2070
epoch: 1000
next table: 1960
cur table: 1996
epoch: 1000
next table: 1369
cur table: 1367
epoch: 1000
next table: 1974
cur table: 1960
epoch: 1000
next table: 1364
cur table: 1369
epoch: 1000
next table: 2007
cur table: 1974
epoch: 1000
next table: 1384
cur table: 1364
epoch: 1000
next table: 2067
cur table: 2007
epoch: 1000
next table: 1401
cur table: 1384
epoch: 1000
next table: 1968
cur table: 2067
epoch: 1000
next table: 1363
cur table: 1401
epoch: 1000
next table: 1956
cur table: 1968
epoch: 1000
next table: 1364
cur table: 1363
epoch: 1000
next table: 1989
cur table: 1956
epoch: 1000
next table: 1418
cur table: 1364
epoch: 1000
next table: 2013
cur table: 1989
epoch: 1000
next table: 2076
cur table: 2013
epoch: 1000
next table: 1408
cur table: 1418
epoch: 1000
next table: 1982
cur table: 2076
epoch: 1000
next table: 1390
cur table: 1408
epoch: 1000
next table: 1980
cur table: 1982
epoch: 1000
next table: 1411
cur table: 1390
epoch: 1000
next table: 1984
cur table: 1980
epoch: 1000
next table: 1375
cur table: 1411
epoch: 1000
next table: 1990
cur table: 1984
epoch: 1000
next table: 1367
cur table: 1375
epoch: 1000
next table: 2083
cur table: 1990
epoch: 1000
next table: 1372
cur table: 1367
epoch: 1000
next table: 1975
cur table: 2083
epoch: 1000
next table: 1365
cur table: 1372
epoch: 1000
next table: 1968
cur table: 1975
epoch: 1000
next table: 1359
cur table: 1365
epoch: 1000
next table: 1981
cur table: 1968
epoch: 1000
next table: 2008
cur table: 1981
epoch: 1000
next table: 1364
cur table: 1359
epoch: 1000
next table: 2033
cur table: 2008
epoch: 1000
next table: 1360
cur table: 1364
epoch: 1000
next table: 1988
cur table: 2033
epoch: 1000
next table: 1364
cur table: 1360
epoch: 1000
next table: 1985
cur table: 1988
epoch: 1000
next table: 1364
cur table: 1364
epoch: 1000
next table: 1990
cur table: 1985
epoch: 1000
next table: 1364
cur table: 1364
epoch: 1000
next table: 2004
cur table: 1990
epoch: 1000
next table: 1372
cur table: 1364
epoch: 1000
next table: 2055
cur table: 2004
epoch: 1000
next table: 1365
cur table: 1372
epoch: 1000
next table: 1937
cur table: 2055
epoch: 1000
next table: 1377
cur table: 1365
epoch: 1000
next table: 1989
cur table: 1937
epoch: 1000
next table: 1372
cur table: 1377
epoch: 1000
next table: 1985
cur table: 1989
epoch: 1000
next table: 2028
cur table: 1985
epoch: 1000
next table: 1374
cur table: 1372
epoch: 1000
next table: 2085
cur table: 2028
epoch: 1000
next table: 1368
cur table: 1374
epoch: 1000
next table: 1965
cur table: 2085
epoch: 1000
next table: 1372
cur table: 1368
epoch: 1000
next table: 1961
cur table: 1965
epoch: 1000
next table: 1369
cur table: 1372
epoch: 1000
next table: 2006
cur table: 1961
epoch: 1000
next table: 1366
cur table: 1369
epoch: 1000
next table: 1997
cur table: 2006
epoch: 1000
next table: 1372
cur table: 1366
epoch: 1000
next table: 2068
cur table: 1997
epoch: 1000
next table: 1368
cur table: 1372
epoch: 1000
next table: 1963
cur table: 2068
epoch: 1000
next table: 1368
cur table: 1368
epoch: 1000
next table: 2007
cur table: 1963
epoch: 1000
next table: 1380
cur table: 1368
epoch: 1000
next table: 1965
cur table: 2007
epoch: 1000
next table: 1358
cur table: 1380
epoch: 1000
next table: 2005
cur table: 1965
epoch: 1000
next table: 2020
cur table: 2005
epoch: 1000
next table: 1386
cur table: 1358
epoch: 1000
next table: 1990
cur table: 2020
epoch: 1000
next table: 1372
cur table: 1386
epoch: 1000
next table: 1993
cur table: 1990
epoch: 1000
next table: 1367
cur table: 1372
epoch: 1000
next table: 1985
cur table: 1993
epoch: 1000
next table: 1360
cur table: 1367
epoch: 1000
next table: 2024
cur table: 1985
epoch: 1000
next table: 1369
cur table: 1360
epoch: 1000
next table: 2041
cur table: 2024
epoch: 1000
next table: 1369
cur table: 1369
epoch: 1000
next table: 1977
cur table: 2041
epoch: 1000
next table: 1371
cur table: 1369
epoch: 1000
next table: 1965
cur table: 1977
epoch: 1000
next table: 1364
cur table: 1371
epoch: 1000
next table: 1987
cur table: 1965
epoch: 1000
next table: 1372
cur table: 1364
epoch: 1000
next table: 2032
cur table: 1987
epoch: 1000
next table: 2057
cur table: 2032
epoch: 1000
next table: 1375
cur table: 1372
epoch: 1000
next table: 1967
cur table: 2057
epoch: 1000
next table: 1373
cur table: 1375
epoch: 1000
next table: 1987
cur table: 1967
epoch: 1000
next table: 1384
cur table: 1373
epoch: 1000
next table: 1986
cur table: 1987
epoch: 1000
next table: 1426
cur table: 1384
epoch: 1000
next table: 1993
cur table: 1986
epoch: 1000
next table: 1378
cur table: 1426
epoch: 1000
next table: 1984
cur table: 1993
epoch: 1000
next table: 1361
cur table: 1378
epoch: 1000
next table: 1987
cur table: 1984
epoch: 1000
next table: 1990
cur table: 1987
epoch: 1000
next table: 1363
cur table: 1361
epoch: 1000
next table: 1965
cur table: 1990
epoch: 1000
next table: 1360
cur table: 1363
epoch: 1000
next table: 2072
cur table: 1965
epoch: 1000
next table: 1362
cur table: 1360
epoch: 1000
next table: 2003
cur table: 2072
epoch: 1000
next table: 1361
cur table: 1362
epoch: 1000
next table: 1934
cur table: 2003
epoch: 1000
next table: 1353
cur table: 1361
epoch: 1000
next table: 1991
cur table: 1934
epoch: 1000
next table: 1356
cur table: 1353
epoch: 1000
next table: 2001
cur table: 1991
epoch: 1000
next table: 1364
cur table: 1356
epoch: 1000
next table: 2077
cur table: 2001
epoch: 1000
next table: 1365
cur table: 1364
epoch: 1000
next table: 1996
cur table: 2077
epoch: 1000
next table: 1361
cur table: 1365
epoch: 1000
next table: 1988
cur table: 1996
epoch: 1000
next table: 1372
cur table: 1361
epoch: 1000
next table: 1905
cur table: 1988
epoch: 1000
next table: 2048
cur table: 1905
epoch: 1000
next table: 1351
cur table: 1372
epoch: 1000
next table: 2059
cur table: 2048
epoch: 1000
next table: 1361
cur table: 1351
epoch: 1000
next table: 1992
cur table: 2059
epoch: 1000
next table: 1366
cur table: 1361
epoch: 1000
next table: 1989
cur table: 1992
epoch: 1000
next table: 1370
cur table: 1366
epoch: 1000
next table: 1961
cur table: 1989
epoch: 1000
next table: 1388
cur table: 1370
epoch: 1000
next table: 2004
cur table: 1961
epoch: 1000
next table: 1426
cur table: 1388
epoch: 1000
next table: 2049
cur table: 2004
epoch: 1000
next table: 1966
cur table: 2049
epoch: 1000
next table: 1423
cur table: 1426
epoch: 1000
next table: 1989
cur table: 1966
epoch: 1000
next table: 1408
cur table: 1423
epoch: 1000
next table: 1989
cur table: 1989
epoch: 1000
next table: 1377
cur table: 1408
epoch: 1000
next table: 2003
cur table: 1989
epoch: 1000
next table: 1376
cur table: 1377
epoch: 1000
next table: 2062
cur table: 2003
epoch: 1000
next table: 1362
cur table: 1376
epoch: 1000
next table: 1989
cur table: 2062
epoch: 1000
next table: 1366
cur table: 1362
epoch: 1000
next table: 1983
cur table: 1989
epoch: 1000
next table: 1363
cur table: 1366
epoch: 1000
next table: 1968
cur table: 1983
epoch: 1000
next table: 1380
cur table: 1363
epoch: 1000
next table: 2022
cur table: 1968
epoch: 1000
next table: 2056
cur table: 2022
epoch: 1000
next table: 1364
cur table: 1380
epoch: 1000
next table: 1970
cur table: 2056
epoch: 1000
next table: 1371
cur table: 1364
epoch: 1000
next table: 1982
cur table: 1970
epoch: 1000
next table: 1363
cur table: 1371
epoch: 1000
next table: 1989
cur table: 1982
epoch: 1000
next table: 1364
cur table: 1363
epoch: 1000
next table: 2005
cur table: 1989
epoch: 1000
next table: 1358
cur table: 1364
epoch: 1000
next table: 2034
cur table: 2005
Heartbeat CPU 0 instructions: 10000002 cycles: 5056896 heartbeat IPC: 1.9775 cumulative IPC: 1.9775 (Simulation time: 0 hr 7 min 43 sec) 
epoch: 1000
next table: 1370
cur table: 1358
epoch: 1000
next table: 1937
cur table: 2034
epoch: 1000
next table: 1351
cur table: 1370
epoch: 1000
next table: 2001
cur table: 1937
epoch: 1000
next table: 1371
cur table: 1351
epoch: 1000
next table: 1997
cur table: 2001
epoch: 1000
next table: 1357
cur table: 1371
epoch: 1000
next table: 2021
cur table: 1997
epoch: 1000
next table: 1371
cur table: 1357
epoch: 1000
next table: 1996
cur table: 2021
epoch: 1000
next table: 1989
cur table: 1996
epoch: 1000
next table: 1356
cur table: 1371
epoch: 1000
next table: 1988
cur table: 1989
epoch: 1000
next table: 1362
cur table: 1356
epoch: 1000
next table: 1968
cur table: 1988
epoch: 1000
next table: 1361
cur table: 1362
epoch: 1000
next table: 2058
cur table: 1968
epoch: 1000
next table: 1365
cur table: 1361
epoch: 1000
next table: 2035
cur table: 2058
epoch: 1000
next table: 1365
cur table: 1365
epoch: 1000
next table: 1977
cur table: 2035
epoch: 1000
next table: 1366
cur table: 1365
epoch: 1000
next table: 1971
cur table: 1977
epoch: 1000
next table: 1367
cur table: 1366
epoch: 1000
next table: 1986
cur table: 1971
epoch: 1000
next table: 1371
cur table: 1367
epoch: 1000
next table: 2053
cur table: 1986
epoch: 1000
next table: 1375
cur table: 1371
epoch: 1000
next table: 2001
cur table: 2053
epoch: 1000
next table: 1366
cur table: 1375
epoch: 1000
next table: 1983
cur table: 2001
epoch: 1000
next table: 1971
cur table: 1983
epoch: 1000
next table: 1369
cur table: 1366
epoch: 1000
next table: 1988
cur table: 1971
epoch: 1000
next table: 1371
cur table: 1369
epoch: 1000
next table: 2048
cur table: 1988
epoch: 1000
next table: 1371
cur table: 1371
epoch: 1000
next table: 2008
cur table: 2048
epoch: 1000
next table: 1369
cur table: 1371
epoch: 1000
next table: 1958
cur table: 2008
epoch: 1000
next table: 1364
cur table: 1369
epoch: 1000
next table: 1986
cur table: 1958
epoch: 1000
next table: 1364
cur table: 1364
epoch: 1000
next table: 1973
cur table: 1986
epoch: 1000
next table: 1365
cur table: 1364
epoch: 1000
next table: 2075
cur table: 1973
epoch: 1000
next table: 1370
cur table: 1365
epoch: 1000
next table: 2000
cur table: 2075
epoch: 1000
next table: 1369
cur table: 1370
epoch: 1000
next table: 1984
cur table: 2000
epoch: 1000
next table: 1966
cur table: 1984
epoch: 1000
next table: 1365
cur table: 1369
epoch: 1000
next table: 1976
cur table: 1966
epoch: 1000
next table: 1363
cur table: 1365
epoch: 1000
next table: 2075
cur table: 1976
epoch: 1000
next table: 1362
cur table: 1363
epoch: 1000
next table: 1996
cur table: 2075
epoch: 1000
next table: 1360
cur table: 1362
epoch: 1000
next table: 1968
cur table: 1996
epoch: 1000
next table: 1361
cur table: 1360
epoch: 1000
next table: 1952
cur table: 1968
epoch: 1000
next table: 1361
cur table: 1361
epoch: 1000
next table: 2018
cur table: 1952
epoch: 1000
next table: 1366
cur table: 1361
epoch: 1000
next table: 2057
cur table: 2018
epoch: 1000
next table: 1365
cur table: 1366
epoch: 1000
next table: 1967
cur table: 2057
epoch: 1000
next table: 1378
cur table: 1365
epoch: 1000
next table: 1983
cur table: 1967
epoch: 1000
next table: 1369
cur table: 1378
epoch: 1000
next table: 1991
cur table: 1983
epoch: 1000
next table: 1364
cur table: 1369
epoch: 1000
next table: 2002
cur table: 1991
epoch: 1000
next table: 2031
cur table: 2002
epoch: 1000
next table: 1368
cur table: 1364
epoch: 1000
next table: 1963
cur table: 2031
epoch: 1000
next table: 1363
cur table: 1368
epoch: 1000
next table: 1992
cur table: 1963
epoch: 1000
next table: 1354
cur table: 1363
epoch: 1000
next table: 2005
cur table: 1992
epoch: 1000
next table: 1364
cur table: 1354
epoch: 1000
next table: 2013
cur table: 2005
epoch: 1000
next table: 1423
cur table: 1364
epoch: 1000
next table: 2052
cur table: 2013
epoch: 1000
next table: 1430
cur table: 1423
epoch: 1000
next table: 1966
cur table: 2052
epoch: 1000
next table: 1957
cur table: 1966
epoch: 1000
next table: 1425
cur table: 1430
epoch: 1000
next table: 1963
cur table: 1957
epoch: 1000
next table: 1381
cur table: 1425
epoch: 1000
next table: 2052
cur table: 1963
epoch: 1000
next table: 1351
cur table: 1381
epoch: 1000
next table: 2062
cur table: 2052
epoch: 1000
next table: 1362
cur table: 1351
epoch: 1000
next table: 1966
cur table: 2062
epoch: 1000
next table: 1364
cur table: 1362
epoch: 1000
next table: 1982
cur table: 1966
epoch: 1000
next table: 1367
cur table: 1364
epoch: 1000
next table: 1955
cur table: 1982
epoch: 1000
next table: 1363
cur table: 1367
epoch: 1000
next table: 2048
cur table: 1955
epoch: 1000
next table: 1994
cur table: 2048
epoch: 1000
next table: 1378
cur table: 1363
epoch: 1000
next table: 1986
cur table: 1994
epoch: 1000
next table: 1370
cur table: 1378
epoch: 1000
next table: 1990
cur table: 1986
epoch: 1000
next table: 1366
cur table: 1370
epoch: 1000
next table: 1989
cur table: 1990
epoch: 1000
next table: 1362
cur table: 1366
epoch: 1000
next table: 2032
cur table: 1989
epoch: 1000
next table: 1366
cur table: 1362
epoch: 1000
next table: 2005
cur table: 2032
epoch: 1000
next table: 1362
cur table: 1366
epoch: 1000
next table: 1941
cur table: 2005
epoch: 1000
next table: 1363
cur table: 1362
epoch: 1000
next table: 1989
cur table: 1941
epoch: 1000
next table: 1365
cur table: 1363
epoch: 1000
next table: 2009
cur table: 1989
epoch: 1000
next table: 1363
cur table: 1365
epoch: 1000
next table: 2072
cur table: 2009
epoch: 1000
next table: 1362
cur table: 1363
epoch: 1000
next table: 1968
cur table: 2072
epoch: 1000
next table: 1964
cur table: 1968
epoch: 1000
next table: 1358
cur table: 1362
epoch: 1000
next table: 1965
cur table: 1964
epoch: 1000
next table: 1363
cur table: 1358
epoch: 1000
next table: 2020
cur table: 1965
epoch: 1000
next table: 1369
cur table: 1363
epoch: 1000
next table: 2065
cur table: 2020
epoch: 1000
next table: 1362
cur table: 1369
epoch: 1000
next table: 1957
cur table: 2065
epoch: 1000
next table: 1368
cur table: 1362
epoch: 1000
next table: 1988
cur table: 1957
epoch: 1000
next table: 1424
cur table: 1368
epoch: 1000
next table: 1985
cur table: 1988
epoch: 1000
next table: 1397
cur table: 1424
epoch: 1000
next table: 2030
cur table: 1985
epoch: 1000
next table: 1365
cur table: 1397
epoch: 1000
next table: 2031
cur table: 2030
epoch: 1000
next table: 1943
cur table: 2031
epoch: 1000
next table: 1362
cur table: 1365
epoch: 1000
next table: 1981
cur table: 1943
epoch: 1000
next table: 1361
cur table: 1362
epoch: 1000
next table: 1987
cur table: 1981
epoch: 1000
next table: 1366
cur table: 1361
epoch: 1000
next table: 2028
cur table: 1987
epoch: 1000
next table: 1367
cur table: 1366
epoch: 1000
next table: 2033
cur table: 2028
epoch: 1000
next table: 1360
cur table: 1367
epoch: 1000
next table: 1988
cur table: 2033
epoch: 1000
next table: 1365
cur table: 1360
epoch: 1000
next table: 1938
cur table: 1988
epoch: 1000
next table: 1357
cur table: 1365
epoch: 1000
next table: 1976
cur table: 1938
epoch: 1000
next table: 1367
cur table: 1357
epoch: 1000
next table: 2063
cur table: 1976
epoch: 1000
next table: 1356
cur table: 1367
epoch: 1000
next table: 2001
cur table: 2063
epoch: 1000
next table: 1357
cur table: 1356
epoch: 1000
next table: 1992
cur table: 2001
epoch: 1000
next table: 1989
cur table: 1992
epoch: 1000
next table: 1364
cur table: 1357
epoch: 1000
next table: 1991
cur table: 1989
epoch: 1000
next table: 1388
cur table: 1364
epoch: 1000
next table: 2033
cur table: 1991
epoch: 1000
next table: 1385
cur table: 1388
epoch: 1000
next table: 1989
cur table: 2033
epoch: 1000
next table: 1367
cur table: 1385
epoch: 1000
next table: 1983
cur table: 1989
epoch: 1000
next table: 1368
cur table: 1367
epoch: 1000
next table: 1983
cur table: 1983
epoch: 1000
next table: 1364
cur table: 1368
epoch: 1000
next table: 2000
cur table: 1983
epoch: 1000
next table: 1388
cur table: 1364
epoch: 1000
next table: 2063
cur table: 2000
epoch: 1000
next table: 1391
cur table: 1388
epoch: 1000
next table: 1997
cur table: 2063
epoch: 1000
next table: 1958
cur table: 1997
epoch: 1000
next table: 1377
cur table: 1391
epoch: 1000
next table: 1983
cur table: 1958
epoch: 1000
next table: 1369
cur table: 1377
epoch: 1000
next table: 1985
cur table: 1983
epoch: 1000
next table: 1363
cur table: 1369
epoch: 1000
next table: 2078
cur table: 1985
epoch: 1000
next table: 1373
cur table: 1363
epoch: 1000
next table: 1991
cur table: 2078
epoch: 1000
next table: 1362
cur table: 1373
epoch: 1000
next table: 1966
cur table: 1991
epoch: 1000
next table: 1374
cur table: 1362
epoch: 1000
next table: 1984
cur table: 1966
epoch: 1000
next table: 1365
cur table: 1374
epoch: 1000
next table: 1983
cur table: 1984
epoch: 1000
next table: 1359
cur table: 1365
epoch: 1000
next table: 2075
cur table: 1983
epoch: 1000
next table: 1365
cur table: 1359
epoch: 1000
next table: 1962
cur table: 2075
epoch: 1000
next table: 1985
cur table: 1962
epoch: 1000
next table: 1365
cur table: 1365
epoch: 1000
next table: 1991
cur table: 1985
epoch: 1000
next table: 1365
cur table: 1365
epoch: 1000
next table: 1995
cur table: 1991
epoch: 1000
next table: 1371
cur table: 1365
epoch: 1000
next table: 2073
cur table: 1995
epoch: 1000
next table: 1363
cur table: 1371
epoch: 1000
next table: 1952
cur table: 2073
epoch: 1000
next table: 1360
cur table: 1363
epoch: 1000
next table: 1986
cur table: 1952
epoch: 1000
next table: 1358
cur table: 1360
epoch: 1000
next table: 1990
cur table: 1986
epoch: 1000
next table: 1369
cur table: 1358
epoch: 1000
next table: 2000
cur table: 1990
epoch: 1000
next table: 1370
cur table: 1369
epoch: 1000
next table: 2078
cur table: 2000
epoch: 1000
next table: 1359
cur table: 1370
epoch: 1000
next table: 1991
cur table: 2078
epoch: 1000
next table: 1363
cur table: 1359
epoch: 1000
next table: 1924
cur table: 1991
epoch: 1000
next table: 1990
cur table: 1924
epoch: 1000
next table: 1357
cur table: 1363
epoch: 1000
next table: 2041
cur table: 1990
epoch: 1000
next table: 1357
cur table: 1357
epoch: 1000
next table: 2053
cur table: 2041
epoch: 1000
next table: 1356
cur table: 1357
epoch: 1000
next table: 1964
cur table: 2053
epoch: 1000
next table: 1360
cur table: 1356
epoch: 1000
next table: 1964
cur table: 1964
epoch: 1000
next table: 1372
cur table: 1360
epoch: 1000
next table: 1979
cur table: 1964
epoch: 1000
next table: 1361
cur table: 1372
epoch: 1000
next table: 2031
cur table: 1979
epoch: 1000
next table: 1355
cur table: 1361
epoch: 1000
next table: 2056
cur table: 2031
epoch: 1000
next table: 1369
cur table: 1355
epoch: 1000
next table: 1982
cur table: 2056
epoch: 1000
next table: 1369
cur table: 1369
epoch: 1000
next table: 1972
cur table: 1982
epoch: 1000
next table: 1372
cur table: 1369
epoch: 1000
next table: 1982
cur table: 1972
epoch: 1000
next table: 2008
cur table: 1982
epoch: 1000
next table: 1362
cur table: 1372
epoch: 1000
next table: 2029
cur table: 2008
epoch: 1000
next table: 1374
cur table: 1362
epoch: 1000
next table: 1966
cur table: 2029
epoch: 1000
next table: 1363
cur table: 1374
epoch: 1000
next table: 1959
cur table: 1966
epoch: 1000
next table: 1353
cur table: 1363
epoch: 1000
next table: 1989
cur table: 1959
epoch: 1000
next table: 1362
cur table: 1353
epoch: 1000
next table: 2073
cur table: 1989
epoch: 1000
next table: 1372
cur table: 1362
epoch: 1000
next table: 2030
cur table: 2073
epoch: 1000
next table: 1368
cur table: 1372
epoch: 1000
next table: 1964
cur table: 2030
epoch: 1000
next table: 1363
cur table: 1368
epoch: 1000
next table: 1985
cur table: 1964
epoch: 1000
next table: 1368
cur table: 1363
epoch: 1000
next table: 1962
cur table: 1985
epoch: 1000
next table: 1362
cur table: 1368
epoch: 1000
next table: 2046
cur table: 1962
epoch: 1000
next table: 2028
cur table: 2046
epoch: 1000
next table: 1366
cur table: 1362
epoch: 1000
next table: 1982
cur table: 2028
epoch: 1000
next table: 1367
cur table: 1366
epoch: 1000
next table: 1957
cur table: 1982
epoch: 1000
next table: 1359
cur table: 1367
epoch: 1000
next table: 1987
cur table: 1957
epoch: 1000
next table: 1363
cur table: 1359
epoch: 1000
next table: 2052
cur table: 1987
epoch: 1000
next table: 1358
cur table: 1363
epoch: 1000
next table: 1995
cur table: 2052
epoch: 1000
next table: 1357
cur table: 1358
epoch: 1000
next table: 1984
cur table: 1995
epoch: 1000
next table: 1364
cur table: 1357
epoch: 1000
next table: 1990
cur table: 1984
epoch: 1000
next table: 1362
cur table: 1364
epoch: 1000
next table: 1987
cur table: 1990
epoch: 1000
next table: 1369
cur table: 1362
epoch: 1000
next table: 2057
cur table: 1987
epoch: 1000
next table: 1371
cur table: 1369
epoch: 1000
next table: 2007
cur table: 2057
epoch: 1000
next table: 1958
cur table: 2007
epoch: 1000
next table: 1375
cur table: 1371
epoch: 1000
next table: 1941
cur table: 1958
epoch: 1000
next table: 1360
cur table: 1375
epoch: 1000
next table: 2016
cur table: 1941
epoch: 1000
next table: 1357
cur table: 1360
epoch: 1000
next table: 2077
cur table: 2016
epoch: 1000
next table: 1359
cur table: 1357
epoch: 1000
next table: 2008
cur table: 2077
epoch: 1000
next table: 1364
cur table: 1359
epoch: 1000
next table: 1983
cur table: 2008
epoch: 1000
next table: 1361
cur table: 1364
epoch: 1000
next table: 1961
cur table: 1983
epoch: 1000
next table: 1368
cur table: 1361
epoch: 1000
next table: 1975
cur table: 1961
epoch: 1000
next table: 1360
cur table: 1368
epoch: 1000
next table: 2065
cur table: 1975
epoch: 1000
next table: 1360
cur table: 1360
epoch: 1000
next table: 1957
cur table: 2065
epoch: 1000
next table: 1359
cur table: 1360
epoch: 1000
next table: 1989
cur table: 1957
epoch: 1000
next table: 1989
cur table: 1989
epoch: 1000
next table: 1372
cur table: 1359
epoch: 1000
next table: 1983
cur table: 1989
epoch: 1000
next table: 1357
cur table: 1372
epoch: 1000
next table: 2012
cur table: 1983
epoch: 1000
next table: 1362
cur table: 1357
epoch: 1000
next table: 1989
cur table: 2012
epoch: 1000
next table: 1368
cur table: 1362
epoch: 1000
next table: 1966
cur table: 1989
epoch: 1000
next table: 1358
cur table: 1368
epoch: 1000
next table: 1991
cur table: 1966
epoch: 1000
next table: 1357
cur table: 1358
epoch: 1000
next table: 2041
cur table: 1991
epoch: 1000
next table: 1362
cur table: 1357
epoch: 1000
next table: 2043
cur table: 2041
epoch: 1000
next table: 1367
cur table: 1362
epoch: 1000
next table: 1970
cur table: 2043
epoch: 1000
next table: 1363
cur table: 1367
epoch: 1000
next table: 1989
cur table: 1970
epoch: 1000
next table: 1372
cur table: 1363
epoch: 1000
next table: 1935
cur table: 1989
epoch: 1000
next table: 2071
cur table: 1935
epoch: 1000
next table: 1354
cur table: 1372
epoch: 1000
next table: 2022
cur table: 2071
epoch: 1000
next table: 1364
cur table: 1354
epoch: 1000
next table: 1989
cur table: 2022
epoch: 1000
next table: 1369
cur table: 1364
epoch: 1000
next table: 1962
cur table: 1989
epoch: 1000
next table: 1363
cur table: 1369
epoch: 1000
next table: 1985
cur table: 1962
epoch: 1000
next table: 1364
cur table: 1363
epoch: 1000
next table: 2056
cur table: 1985
epoch: 1000
next table: 1371
cur table: 1364
epoch: 1000
next table: 1982
cur table: 2056
epoch: 1000
next table: 1366
cur table: 1371
epoch: 1000
next table: 1988
cur table: 1982
epoch: 1000
next table: 1371
cur table: 1366
epoch: 1000
next table: 1992
cur table: 1988
epoch: 1000
next table: 1371
cur table: 1371
epoch: 1000
next table: 1985
cur table: 1992
epoch: 1000
next table: 1371
cur table: 1371
epoch: 1000
next table: 2057
cur table: 1985
epoch: 1000
next table: 2008
cur table: 2057
epoch: 1000
next table: 1373
cur table: 1371
epoch: 1000
next table: 1953
cur table: 2008
epoch: 1000
next table: 1392
cur table: 1373
epoch: 1000
next table: 1964
cur table: 1953
epoch: 1000
next table: 1407
cur table: 1392
epoch: 1000
next table: 1993
cur table: 1964
epoch: 1000
next table: 1367
cur table: 1407
epoch: 1000
next table: 2076
cur table: 1993
epoch: 1000
next table: 1367
cur table: 1367
epoch: 1000
next table: 2000
cur table: 2076
epoch: 1000
next table: 1362
cur table: 1367
epoch: 1000
next table: 1972
cur table: 2000
epoch: 1000
next table: 1367
cur table: 1362
epoch: 1000
next table: 1958
cur table: 1972
epoch: 1000
next table: 2002
cur table: 1958
epoch: 1000
next table: 1400
cur table: 1367
epoch: 1000
next table: 2036
cur table: 2002
epoch: 1000
next table: 1365
cur table: 1400
epoch: 1000
next table: 2001
cur table: 2036
epoch: 1000
next table: 1371
cur table: 1365
epoch: 1000
next table: 1968
cur table: 2001
epoch: 1000
next table: 1374
cur table: 1371
epoch: 1000
next table: 1992
cur table: 1968
epoch: 1000
next table: 1364
cur table: 1374
epoch: 1000
next table: 2004
cur table: 1992
epoch: 1000
next table: 1363
cur table: 1364
epoch: 1000
next table: 2072
cur table: 2004
epoch: 1000
next table: 1368
cur table: 1363
epoch: 1000
next table: 1940
cur table: 2072
epoch: 1000
next table: 1385
cur table: 1368
epoch: 1000
next table: 2005
cur table: 1940
epoch: 1000
next table: 1986
cur table: 2005
epoch: 1000
next table: 1357
cur table: 1385
epoch: 1000
next table: 2006
cur table: 1986
epoch: 1000
next table: 1370
cur table: 1357
epoch: 1000
next table: 2065
cur table: 2006
epoch: 1000
next table: 1398
cur table: 1370
epoch: 1000
next table: 1987
cur table: 2065
epoch: 1000
next table: 1387
cur table: 1398
epoch: 1000
next table: 2003
cur table: 1987
epoch: 1000
next table: 1407
cur table: 1387
epoch: 1000
next table: 1939
cur table: 2003
epoch: 1000
next table: 1387
cur table: 1407
epoch: 1000
next table: 2009
cur table: 1939
epoch: 1000
next table: 1416
cur table: 1387
epoch: 1000
next table: 2055
cur table: 2009
epoch: 1000
next table: 1989
cur table: 2055
epoch: 1000
next table: 1386
cur table: 1416
epoch: 1000
next table: 1957
cur table: 1989
epoch: 1000
next table: 1408
cur table: 1386
epoch: 1000
next table: 1992
cur table: 1957
epoch: 1000
next table: 1370
cur table: 1408
epoch: 1000
next table: 2009
cur table: 1992
epoch: 1000
next table: 1370
cur table: 1370
epoch: 1000
next table: 2026
cur table: 2009
epoch: 1000
next table: 1361
cur table: 1370
epoch: 1000
next table: 1999
cur table: 2026
epoch: 1000
next table: 1358
cur table: 1361
epoch: 1000
next table: 1975
cur table: 1999
epoch: 1000
next table: 1367
cur table: 1358
epoch: 1000
next table: 1984
cur table: 1975
epoch: 1000
next table: 1373
cur table: 1367
epoch: 1000
next table: 2024
cur table: 1984
epoch: 1000
next table: 2065
cur table: 2024
epoch: 1000
next table: 1363
cur table: 1373
epoch: 1000
next table: 1980
cur table: 2065
epoch: 1000
next table: 1397
cur table: 1363
epoch: 1000
next table: 1964
cur table: 1980
epoch: 1000
next table: 1397
cur table: 1397
epoch: 1000
next table: 1972
cur table: 1964
epoch: 1000
next table: 1377
cur table: 1397
epoch: 1000
next table: 2025
cur table: 1972
epoch: 1000
next table: 1366
cur table: 1377
epoch: 1000
next table: 2035
cur table: 2025
epoch: 1000
next table: 1409
cur table: 1366
epoch: 1000
next table: 1985
cur table: 2035
epoch: 1000
next table: 1989
cur table: 1985
epoch: 1000
next table: 1400
cur table: 1409
epoch: 1000
next table: 1923
cur table: 1989
epoch: 1000
next table: 1363
cur table: 1400
epoch: 1000
next table: 2075
cur table: 1923
epoch: 1000
next table: 1361
cur table: 1363
epoch: 1000
next table: 2037
cur table: 2075
epoch: 1000
next table: 1365
cur table: 1361
epoch: 1000
next table: 1968
cur table: 2037
epoch: 1000
next table: 1372
cur table: 1365
Heartbeat CPU 0 instructions: 20000000 cycles: 10124341 heartbeat IPC: 1.97338 cumulative IPC: 1.97544 (Simulation time: 0 hr 15 min 29 sec) 
epoch: 1000
next table: 1963
cur table: 1968
epoch: 1000
next table: 1375
cur table: 1372
epoch: 1000
next table: 2004
cur table: 1963
epoch: 1000
next table: 1364
cur table: 1375
epoch: 1000
next table: 2042
cur table: 2004
epoch: 1000
next table: 1372
cur table: 1364
epoch: 1000
next table: 2017
cur table: 2042
epoch: 1000
next table: 1365
cur table: 1372
epoch: 1000
next table: 1987
cur table: 2017
epoch: 1000
next table: 1374
cur table: 1365
epoch: 1000
next table: 1988
cur table: 1987
epoch: 1000
next table: 1966
cur table: 1988
epoch: 1000
next table: 1372
cur table: 1374
epoch: 1000
next table: 2047
cur table: 1966
epoch: 1000
next table: 1365
cur table: 1372
epoch: 1000
next table: 2016
cur table: 2047
epoch: 1000
next table: 1365
cur table: 1365
epoch: 1000
next table: 1964
cur table: 2016
epoch: 1000
next table: 1362
cur table: 1365
epoch: 1000
next table: 1985
cur table: 1964
epoch: 1000
next table: 1355
cur table: 1362
epoch: 1000
next table: 1958
cur table: 1985
epoch: 1000
next table: 1361
cur table: 1355
epoch: 1000
next table: 2068
cur table: 1958
epoch: 1000
next table: 1357
cur table: 1361
epoch: 1000
next table: 2017
cur table: 2068
epoch: 1000
next table: 1383
cur table: 1357
epoch: 1000
next table: 1994
cur table: 2017
epoch: 1000
next table: 1371
cur table: 1383
epoch: 1000
next table: 1981
cur table: 1994
epoch: 1000
next table: 1974
cur table: 1981
epoch: 1000
next table: 1359
cur table: 1371
epoch: 1000
next table: 2042
cur table: 1974
epoch: 1000
next table: 1368
cur table: 1359
epoch: 1000
next table: 2018
cur table: 2042
epoch: 1000
next table: 1363
cur table: 1368
epoch: 1000
next table: 1958
cur table: 2018
epoch: 1000
next table: 1361
cur table: 1363
epoch: 1000
next table: 1980
cur table: 1958
epoch: 1000
next table: 1364
cur table: 1361
epoch: 1000
next table: 1991
cur table: 1980
epoch: 1000
next table: 1359
cur table: 1364
epoch: 1000
next table: 2053
cur table: 1991
epoch: 1000
next table: 1366
cur table: 1359
epoch: 1000
next table: 1977
cur table: 2053
epoch: 1000
next table: 1371
cur table: 1366
epoch: 1000
next table: 1954
cur table: 1977
epoch: 1000
next table: 1359
cur table: 1371
epoch: 1000
next table: 1993
cur table: 1954
epoch: 1000
next table: 1364
cur table: 1359
epoch: 1000
next table: 2015
cur table: 1993
epoch: 1000
next table: 2068
cur table: 2015
epoch: 1000
next table: 1366
cur table: 1364
epoch: 1000
next table: 1991
cur table: 2068
epoch: 1000
next table: 1367
cur table: 1366
epoch: 1000
next table: 1938
cur table: 1991
epoch: 1000
next table: 1367
cur table: 1367
epoch: 1000
next table: 1975
cur table: 1938
epoch: 1000
next table: 1371
cur table: 1367
epoch: 1000
next table: 2024
cur table: 1975
epoch: 1000
next table: 1373
cur table: 1371
epoch: 1000
next table: 2045
cur table: 2024
epoch: 1000
next table: 1363
cur table: 1373
epoch: 1000
next table: 1986
cur table: 2045
epoch: 1000
next table: 1359
cur table: 1363
epoch: 1000
next table: 1987
cur table: 1986
epoch: 1000
next table: 1375
cur table: 1359
epoch: 1000
next table: 1990
cur table: 1987
epoch: 1000
next table: 1369
cur table: 1375
epoch: 1000
next table: 2006
cur table: 1990
epoch: 1000
next table: 2022
cur table: 2006
epoch: 1000
next table: 1363
cur table: 1369
epoch: 1000
next table: 1972
cur table: 2022
epoch: 1000
next table: 1361
cur table: 1363
epoch: 1000
next table: 1985
cur table: 1972
epoch: 1000
next table: 1368
cur table: 1361
epoch: 1000
next table: 1985
cur table: 1985
epoch: 1000
next table: 1356
cur table: 1368
epoch: 1000
next table: 2023
cur table: 1985
epoch: 1000
next table: 1362
cur table: 1356
epoch: 1000
next table: 2063
cur table: 2023
epoch: 1000
next table: 1366
cur table: 1362
epoch: 1000
next table: 1972
cur table: 2063
epoch: 1000
next table: 1372
cur table: 1366
epoch: 1000
next table: 1981
cur table: 1972
epoch: 1000
next table: 1367
cur table: 1372
epoch: 1000
next table: 1955
cur table: 1981
epoch: 1000
next table: 1367
cur table: 1367
epoch: 1000
next table: 2030
cur table: 1955
epoch: 1000
next table: 2060
cur table: 2030
epoch: 1000
next table: 1371
cur table: 1367
epoch: 1000
next table: 1964
cur table: 2060
epoch: 1000
next table: 1361
cur table: 1371
epoch: 1000
next table: 1961
cur table: 1964
epoch: 1000
next table: 1361
cur table: 1361
epoch: 1000
next table: 1991
cur table: 1961
epoch: 1000
next table: 1359
cur table: 1361
epoch: 1000
next table: 2033
cur table: 1991
epoch: 1000
next table: 1361
cur table: 1359
epoch: 1000
next table: 2013
cur table: 2033
epoch: 1000
next table: 1359
cur table: 1361
epoch: 1000
next table: 1986
cur table: 2013
epoch: 1000
next table: 1361
cur table: 1359
epoch: 1000
next table: 1988
cur table: 1986
epoch: 1000
next table: 1363
cur table: 1361
epoch: 1000
next table: 1961
cur table: 1988
epoch: 1000
next table: 1366
cur table: 1363
epoch: 1000
next table: 2053
cur table: 1961
epoch: 1000
next table: 1359
cur table: 1366
epoch: 1000
next table: 2011
cur table: 2053
epoch: 1000
next table: 1951
cur table: 2011
epoch: 1000
next table: 1358
cur table: 1359
epoch: 1000
next table: 1993
cur table: 1951
epoch: 1000
next table: 1368
cur table: 1358
epoch: 1000
next table: 1992
cur table: 1993
epoch: 1000
next table: 1396
cur table: 1368
epoch: 1000
next table: 2062
cur table: 1992
epoch: 1000
next table: 1376
cur table: 1396
epoch: 1000
next table: 1997
cur table: 2062
epoch: 1000
next table: 1363
cur table: 1376
epoch: 1000
next table: 1991
cur table: 1997
epoch: 1000
next table: 1367
cur table: 1363
epoch: 1000
next table: 1981
cur table: 1991
epoch: 1000
next table: 1375
cur table: 1367
epoch: 1000
next table: 1962
cur table: 1981
epoch: 1000
next table: 1356
cur table: 1375
epoch: 1000
next table: 2067
cur table: 1962
epoch: 1000
next table: 1358
cur table: 1356
epoch: 1000
next table: 2001
cur table: 2067
epoch: 1000
next table: 1362
cur table: 1358
epoch: 1000
next table: 1982
cur table: 2001
epoch: 1000
next table: 1965
cur table: 1982
epoch: 1000
next table: 1356
cur table: 1362
epoch: 1000
next table: 1968
cur table: 1965
epoch: 1000
next table: 1363
cur table: 1356
epoch: 1000
next table: 2063
cur table: 1968
epoch: 1000
next table: 1364
cur table: 1363
epoch: 1000
next table: 1988
cur table: 2063
epoch: 1000
next table: 1361
cur table: 1364
epoch: 1000
next table: 2009
cur table: 1988
epoch: 1000
next table: 1369
cur table: 1361
epoch: 1000
next table: 1992
cur table: 2009
epoch: 1000
next table: 1404
cur table: 1369
epoch: 1000
next table: 1970
cur table: 1992
epoch: 1000
next table: 1369
cur table: 1404
epoch: 1000
next table: 2071
cur table: 1970
epoch: 1000
next table: 1366
cur table: 1369
epoch: 1000
next table: 1989
cur table: 2071
epoch: 1000
next table: 1364
cur table: 1366
epoch: 1000
next table: 1923
cur table: 1989
epoch: 1000
next table: 2005
cur table: 1923
epoch: 1000
next table: 1355
cur table: 1364
epoch: 1000
next table: 2013
cur table: 2005
epoch: 1000
next table: 1361
cur table: 1355
epoch: 1000
next table: 2080
cur table: 2013
epoch: 1000
next table: 1359
cur table: 1361
epoch: 1000
next table: 1960
cur table: 2080
epoch: 1000
next table: 1363
cur table: 1359
epoch: 1000
next table: 1982
cur table: 1960
epoch: 1000
next table: 1378
cur table: 1363
epoch: 1000
next table: 1961
cur table: 1982
epoch: 1000
next table: 1422
cur table: 1378
epoch: 1000
next table: 2027
cur table: 1961
epoch: 1000
next table: 1416
cur table: 1422
epoch: 1000
next table: 2047
cur table: 2027
epoch: 1000
next table: 1985
cur table: 2047
epoch: 1000
next table: 1393
cur table: 1416
epoch: 1000
next table: 1986
cur table: 1985
epoch: 1000
next table: 1413
cur table: 1393
epoch: 1000
next table: 1986
cur table: 1986
epoch: 1000
next table: 1447
cur table: 1413
epoch: 1000
next table: 2007
cur table: 1986
epoch: 1000
next table: 1364
cur table: 1447
epoch: 1000
next table: 2023
cur table: 2007
epoch: 1000
next table: 1367
cur table: 1364
epoch: 1000
next table: 1992
cur table: 2023
epoch: 1000
next table: 1987
cur table: 1992
epoch: 1000
next table: 1365
cur table: 1367
epoch: 1000
next table: 1990
cur table: 1987
epoch: 1000
next table: 1363
cur table: 1365
epoch: 1000
next table: 2015
cur table: 1990
epoch: 1000
next table: 1376
cur table: 1363
epoch: 1000
next table: 2076
cur table: 2015
epoch: 1000
next table: 1363
cur table: 1376
epoch: 1000
next table: 1987
cur table: 2076
epoch: 1000
next table: 1365
cur table: 1363
epoch: 1000
next table: 1933
cur table: 1987
epoch: 1000
next table: 1362
cur table: 1365
epoch: 1000
next table: 1979
cur table: 1933
epoch: 1000
next table: 1364
cur table: 1362
epoch: 1000
next table: 2017
cur table: 1979
epoch: 1000
next table: 1357
cur table: 1364
epoch: 1000
next table: 2049
cur table: 2017
epoch: 1000
next table: 1365
cur table: 1357
epoch: 1000
next table: 2007
cur table: 2049
epoch: 1000
next table: 1363
cur table: 1365
epoch: 1000
next table: 1969
cur table: 2007
epoch: 1000
next table: 1991
cur table: 1969
epoch: 1000
next table: 1367
cur table: 1363
epoch: 1000
next table: 1997
cur table: 1991
epoch: 1000
next table: 1359
cur table: 1367
epoch: 1000
next table: 2056
cur table: 1997
epoch: 1000
next table: 1360
cur table: 1359
epoch: 1000
next table: 1978
cur table: 2056
epoch: 1000
next table: 1363
cur table: 1360
epoch: 1000
next table: 1971
cur table: 1978
epoch: 1000
next table: 1358
cur table: 1363
epoch: 1000
next table: 1987
cur table: 1971
epoch: 1000
next table: 1363
cur table: 1358
epoch: 1000
next table: 2018
cur table: 1987
epoch: 1000
next table: 1374
cur table: 1363
epoch: 1000
next table: 2069
cur table: 2018
epoch: 1000
next table: 1362
cur table: 1374
epoch: 1000
next table: 1962
cur table: 2069
epoch: 1000
next table: 1377
cur table: 1362
epoch: 1000
next table: 1978
cur table: 1962
epoch: 1000
next table: 1363
cur table: 1377
epoch: 1000
next table: 1970
cur table: 1978
epoch: 1000
next table: 2042
cur table: 1970
epoch: 1000
next table: 1369
cur table: 1363
epoch: 1000
next table: 2051
cur table: 2042
epoch: 1000
next table: 1371
cur table: 1369
epoch: 1000
next table: 1979
cur table: 2051
epoch: 1000
next table: 1362
cur table: 1371
epoch: 1000
next table: 1983
cur table: 1979
epoch: 1000
next table: 1367
cur table: 1362
epoch: 1000
next table: 1962
cur table: 1983
epoch: 1000
next table: 1369
cur table: 1367
epoch: 1000
next table: 2018
cur table: 1962
epoch: 1000
next table: 1368
cur table: 1369
epoch: 1000
next table: 2043
cur table: 2018
epoch: 1000
next table: 1375
cur table: 1368
epoch: 1000
next table: 1970
cur table: 2043
epoch: 1000
next table: 1370
cur table: 1375
epoch: 1000
next table: 1980
cur table: 1970
epoch: 1000
next table: 1367
cur table: 1370
epoch: 1000
next table: 1988
cur table: 1980
epoch: 1000
next table: 1365
cur table: 1367
epoch: 1000
next table: 2008
cur table: 1988
epoch: 1000
next table: 2026
cur table: 2008
epoch: 1000
next table: 1357
cur table: 1365
epoch: 1000
next table: 1968
cur table: 2026
epoch: 1000
next table: 1368
cur table: 1357
epoch: 1000
next table: 1983
cur table: 1968
epoch: 1000
next table: 1351
cur table: 1368
epoch: 1000
next table: 1986
cur table: 1983
epoch: 1000
next table: 1359
cur table: 1351
epoch: 1000
next table: 2049
cur table: 1986
epoch: 1000
next table: 1361
cur table: 1359
epoch: 1000
next table: 2040
cur table: 2049
epoch: 1000
next table: 1358
cur table: 1361
epoch: 1000
next table: 1944
cur table: 2040
epoch: 1000
next table: 1369
cur table: 1358
epoch: 1000
next table: 2001
cur table: 1944
epoch: 1000
next table: 1359
cur table: 1369
epoch: 1000
next table: 1987
cur table: 2001
epoch: 1000
next table: 1364
cur table: 1359
epoch: 1000
next table: 2046
cur table: 1987
epoch: 1000
next table: 1364
cur table: 1364
epoch: 1000
next table: 1993
cur table: 2046
epoch: 1000
next table: 1985
cur table: 1993
epoch: 1000
next table: 1365
cur table: 1364
epoch: 1000
next table: 1985
cur table: 1985
epoch: 1000
next table: 1371
cur table: 1365
epoch: 1000
next table: 1961
cur table: 1985
epoch: 1000
next table: 1356
cur table: 1371
epoch: 1000
next table: 2067
cur table: 1961
epoch: 1000
next table: 1361
cur table: 1356
epoch: 1000
next table: 2015
cur table: 2067
epoch: 1000
next table: 1362
cur table: 1361
epoch: 1000
next table: 1993
cur table: 2015
epoch: 1000
next table: 1363
cur table: 1362
epoch: 1000
next table: 1987
cur table: 1993
epoch: 1000
next table: 1364
cur table: 1363
epoch: 1000
next table: 1990
cur table: 1987
epoch: 1000
next table: 1362
cur table: 1364
epoch: 1000
next table: 2022
cur table: 1990
epoch: 1000
next table: 1366
cur table: 1362
epoch: 1000
next table: 2006
cur table: 2022
epoch: 1000
next table: 1365
cur table: 1366
epoch: 1000
next table: 1945
cur table: 2006
epoch: 1000
next table: 2004
cur table: 1945
epoch: 1000
next table: 1361
cur table: 1365
epoch: 1000
next table: 1983
cur table: 2004
epoch: 1000
next table: 1381
cur table: 1361
epoch: 1000
next table: 2062
cur table: 1983
epoch: 1000
next table: 1404
cur table: 1381
epoch: 1000
next table: 2008
cur table: 2062
epoch: 1000
next table: 1360
cur table: 1404
epoch: 1000
next table: 1980
cur table: 2008
epoch: 1000
next table: 1366
cur table: 1360
epoch: 1000
next table: 1973
cur table: 1980
epoch: 1000
next table: 1366
cur table: 1366
epoch: 1000
next table: 1989
cur table: 1973
epoch: 1000
next table: 1370
cur table: 1366
epoch: 1000
next table: 2059
cur table: 1989
epoch: 1000
next table: 1363
cur table: 1370
epoch: 1000
next table: 1997
cur table: 2059
epoch: 1000
next table: 1984
cur table: 1997
epoch: 1000
next table: 1420
cur table: 1363
epoch: 1000
next table: 1959
cur table: 1984
epoch: 1000
next table: 1369
cur table: 1420
epoch: 1000
next table: 1992
cur table: 1959
epoch: 1000
next table: 1363
cur table: 1369
epoch: 1000
next table: 2029
cur table: 1992
epoch: 1000
next table: 1361
cur table: 1363
epoch: 1000
next table: 1993
cur table: 2029
epoch: 1000
next table: 1356
cur table: 1361
epoch: 1000
next table: 1989
cur table: 1993
epoch: 1000
next table: 1368
cur table: 1356
epoch: 1000
next table: 1985
cur table: 1989
epoch: 1000
next table: 1365
cur table: 1368
epoch: 1000
next table: 2008
cur table: 1985
epoch: 1000
next table: 1364
cur table: 1365
epoch: 1000
next table: 2084
cur table: 2008
epoch: 1000
next table: 1364
cur table: 1364
epoch: 1000
next table: 1980
cur table: 2084
epoch: 1000
next table: 1958
cur table: 1980
epoch: 1000
next table: 1372
cur table: 1364
epoch: 1000
next table: 1992
cur table: 1958
epoch: 1000
next table: 1368
cur table: 1372
epoch: 1000
next table: 2001
cur table: 1992
epoch: 1000
next table: 1370
cur table: 1368
epoch: 1000
next table: 2077
cur table: 2001
epoch: 1000
next table: 1365
cur table: 1370
epoch: 1000
next table: 1980
cur table: 2077
epoch: 1000
next table: 1368
cur table: 1365
epoch: 1000
next table: 1961
cur table: 1980
epoch: 1000
next table: 1354
cur table: 1368
epoch: 1000
next table: 1992
cur table: 1961
epoch: 1000
next table: 1363
cur table: 1354
epoch: 1000
next table: 1989
cur table: 1992
epoch: 1000
next table: 1367
cur table: 1363
epoch: 1000
next table: 2075
cur table: 1989
epoch: 1000
next table: 1365
cur table: 1367
epoch: 1000
next table: 2003
cur table: 2075
epoch: 1000
next table: 1362
cur table: 1365
epoch: 1000
next table: 1972
cur table: 2003
epoch: 1000
next table: 1979
cur table: 1972
epoch: 1000
next table: 1374
cur table: 1362
epoch: 1000
next table: 1991
cur table: 1979
epoch: 1000
next table: 1360
cur table: 1374
epoch: 1000
next table: 2016
cur table: 1991
epoch: 1000
next table: 1350
cur table: 1360
epoch: 1000
next table: 1954
cur table: 2016
epoch: 1000
next table: 1367
cur table: 1350
epoch: 1000
next table: 1968
cur table: 1954
epoch: 1000
next table: 1366
cur table: 1367
epoch: 1000
next table: 2012
cur table: 1968
epoch: 1000
next table: 1367
cur table: 1366
epoch: 1000
next table: 2026
cur table: 2012
epoch: 1000
next table: 1363
cur table: 1367
epoch: 1000
next table: 2039
cur table: 2026
epoch: 1000
next table: 1361
cur table: 1363
epoch: 1000
next table: 1986
cur table: 2039
epoch: 1000
next table: 1953
cur table: 1986
epoch: 1000
next table: 1433
cur table: 1361
epoch: 1000
next table: 1991
cur table: 1953
epoch: 1000
next table: 1417
cur table: 1433
epoch: 1000
next table: 2056
cur table: 1991
epoch: 1000
next table: 1403
cur table: 1417
epoch: 1000
next table: 2033
cur table: 2056
epoch: 1000
next table: 1389
cur table: 1403
epoch: 1000
next table: 1959
cur table: 2033
epoch: 1000
next table: 1360
cur table: 1389
epoch: 1000
next table: 1964
cur table: 1959
epoch: 1000
next table: 1362
cur table: 1360
epoch: 1000
next table: 1984
cur table: 1964
epoch: 1000
next table: 2047
cur table: 1984
epoch: 1000
next table: 1384
cur table: 1362
epoch: 1000
next table: 2015
cur table: 2047
epoch: 1000
next table: 1361
cur table: 1384
epoch: 1000
next table: 1985
cur table: 2015
epoch: 1000
next table: 1367
cur table: 1361
epoch: 1000
next table: 1994
cur table: 1985
epoch: 1000
next table: 1360
cur table: 1367
epoch: 1000
next table: 1987
cur table: 1994
epoch: 1000
next table: 1359
cur table: 1360
epoch: 1000
next table: 2033
cur table: 1987
epoch: 1000
next table: 1372
cur table: 1359
epoch: 1000
next table: 1999
cur table: 2033
epoch: 1000
next table: 1366
cur table: 1372
epoch: 1000
next table: 1962
cur table: 1999
epoch: 1000
next table: 1360
cur table: 1366
epoch: 1000
next table: 1988
cur table: 1962
epoch: 1000
next table: 1367
cur table: 1360
epoch: 1000
next table: 1987
cur table: 1988
epoch: 1000
next table: 1370
cur table: 1367
epoch: 1000
next table: 2071
cur table: 1987
epoch: 1000
next table: 2030
cur table: 2071
epoch: 1000
next table: 1368
cur table: 1370
epoch: 1000
next table: 1995
cur table: 2030
epoch: 1000
next table: 1377
cur table: 1368
epoch: 1000
next table: 1991
cur table: 1995
epoch: 1000
next table: 1359
cur table: 1377
epoch: 1000
next table: 1962
cur table: 1991
epoch: 1000
next table: 1378
cur table: 1359
epoch: 1000
next table: 2024
cur table: 1962
epoch: 1000
next table: 1360
cur table: 1378
epoch: 1000
next table: 2035
cur table: 2024
epoch: 1000
next table: 1371
cur table: 1360
epoch: 1000
next table: 1961
cur table: 2035
epoch: 1000
next table: 1362
cur table: 1371
epoch: 1000
next table: 2010
cur table: 1961
epoch: 1000
next table: 1363
cur table: 1362
epoch: 1000
next table: 1969
cur table: 2010
epoch: 1000
next table: 1368
cur table: 1363
epoch: 1000
next table: 2034
cur table: 1969
epoch: 1000
next table: 2009
cur table: 2034
epoch: 1000
next table: 1359
cur table: 1368
epoch: 1000
next table: 1963
cur table: 2009
epoch: 1000
next table: 1363
cur table: 1359
epoch: 1000
next table: 1957
cur table: 1963
epoch: 1000
next table: 1357
cur table: 1363
epoch: 1000
next table: 2000
cur table: 1957
epoch: 1000
next table: 1355
cur table: 1357
epoch: 1000
next table: 2074
cur table: 2000
epoch: 1000
next table: 1364
cur table: 1355
epoch: 1000
next table: 2005
cur table: 2074
epoch: 1000
next table: 1365
cur table: 1364
epoch: 1000
next table: 1956
cur table: 2005
epoch: 1000
next table: 1362
cur table: 1365
epoch: 1000
next table: 1982
cur table: 1956
epoch: 1000
next table: 1423
cur table: 1362
epoch: 1000
next table: 1991
cur table: 1982
epoch: 1000
next table: 2066
cur table: 1991
epoch: 1000
next table: 1397
cur table: 1423
epoch: 1000
next table: 1983
cur table: 2066
epoch: 1000
next table: 1417
cur table: 1397
epoch: 1000
next table: 2012
cur table: 1983
Heartbeat CPU 0 instructions: 30000000 cycles: 15198143 heartbeat IPC: 1.97091 cumulative IPC: 1.97393 (Simulation time: 0 hr 23 min 59 sec) 
epoch: 1000
next table: 1366
cur table: 1417
epoch: 1000
next table: 1971
cur table: 2012
epoch: 1000
next table: 1356
cur table: 1366
epoch: 1000
next table: 1969
cur table: 1971
epoch: 1000
next table: 1367
cur table: 1356
epoch: 1000
next table: 2077
cur table: 1969
epoch: 1000
next table: 1367
cur table: 1367
epoch: 1000
next table: 1993
cur table: 2077
epoch: 1000
next table: 1367
cur table: 1367
epoch: 1000
next table: 1970
cur table: 1993
epoch: 1000
next table: 1374
cur table: 1367
epoch: 1000
next table: 2005
cur table: 1970
epoch: 1000
next table: 1965
cur table: 2005
epoch: 1000
next table: 1359
cur table: 1374
epoch: 1000
next table: 2066
cur table: 1965
epoch: 1000
next table: 1366
cur table: 1359
epoch: 1000
next table: 2004
cur table: 2066
epoch: 1000
next table: 1361
cur table: 1366
epoch: 1000
next table: 1960
cur table: 2004
epoch: 1000
next table: 1360
cur table: 1361
epoch: 1000
next table: 1981
cur table: 1960
epoch: 1000
next table: 1377
cur table: 1360
epoch: 1000
next table: 1997
cur table: 1981
epoch: 1000
next table: 1359
cur table: 1377
epoch: 1000
next table: 2071
cur table: 1997
epoch: 1000
next table: 1367
cur table: 1359
epoch: 1000
next table: 2005
cur table: 2071
epoch: 1000
next table: 1368
cur table: 1367
epoch: 1000
next table: 1957
cur table: 2005
epoch: 1000
next table: 1374
cur table: 1368
epoch: 1000
next table: 1989
cur table: 1957
epoch: 1000
next table: 1379
cur table: 1374
epoch: 1000
next table: 1998
cur table: 1989
epoch: 1000
next table: 2071
cur table: 1998
epoch: 1000
next table: 1370
cur table: 1379
epoch: 1000
next table: 1955
cur table: 2071
epoch: 1000
next table: 1367
cur table: 1370
epoch: 1000
next table: 1985
cur table: 1955
epoch: 1000
next table: 1364
cur table: 1367
epoch: 1000
next table: 1989
cur table: 1985
epoch: 1000
next table: 1360
cur table: 1364
epoch: 1000
next table: 1998
cur table: 1989
epoch: 1000
next table: 1386
cur table: 1360
epoch: 1000
next table: 2066
cur table: 1998
epoch: 1000
next table: 1389
cur table: 1386
epoch: 1000
next table: 1958
cur table: 2066
epoch: 1000
next table: 1410
cur table: 1389
epoch: 1000
next table: 1985
cur table: 1958
epoch: 1000
next table: 1984
cur table: 1985
epoch: 1000
next table: 1365
cur table: 1410
epoch: 1000
next table: 2011
cur table: 1984
epoch: 1000
next table: 1360
cur table: 1365
epoch: 1000
next table: 2033
cur table: 2011
epoch: 1000
next table: 1367
cur table: 1360
epoch: 1000
next table: 1951
cur table: 2033
epoch: 1000
next table: 1360
cur table: 1367
epoch: 1000
next table: 1984
cur table: 1951
epoch: 1000
next table: 1368
cur table: 1360
epoch: 1000
next table: 1964
cur table: 1984
epoch: 1000
next table: 1382
cur table: 1368
epoch: 1000
next table: 2044
cur table: 1964
epoch: 1000
next table: 1418
cur table: 1382
epoch: 1000
next table: 2020
cur table: 2044
epoch: 1000
next table: 1373
cur table: 1418
epoch: 1000
next table: 1962
cur table: 2020
epoch: 1000
next table: 1980
cur table: 1962
epoch: 1000
next table: 1367
cur table: 1373
epoch: 1000
next table: 1964
cur table: 1980
epoch: 1000
next table: 1367
cur table: 1367
epoch: 1000
next table: 2062
cur table: 1964
epoch: 1000
next table: 1361
cur table: 1367
epoch: 1000
next table: 2019
cur table: 2062
epoch: 1000
next table: 1369
cur table: 1361
epoch: 1000
next table: 1971
cur table: 2019
epoch: 1000
next table: 1366
cur table: 1369
epoch: 1000
next table: 1978
cur table: 1971
epoch: 1000
next table: 1367
cur table: 1366
epoch: 1000
next table: 1982
cur table: 1978
epoch: 1000
next table: 1365
cur table: 1367
epoch: 1000
next table: 2059
cur table: 1982
epoch: 1000
next table: 1369
cur table: 1365
epoch: 1000
next table: 1970
cur table: 2059
epoch: 1000
next table: 1359
cur table: 1369
epoch: 1000
next table: 1991
cur table: 1970
epoch: 1000
next table: 1358
cur table: 1359
epoch: 1000
next table: 2017
cur table: 1991
epoch: 1000
next table: 1986
cur table: 2017
epoch: 1000
next table: 1368
cur table: 1358
epoch: 1000
next table: 2051
cur table: 1986
epoch: 1000
next table: 1361
cur table: 1368
epoch: 1000
next table: 1983
cur table: 2051
epoch: 1000
next table: 1369
cur table: 1361
epoch: 1000
next table: 1964
cur table: 1983
epoch: 1000
next table: 1367
cur table: 1369
epoch: 1000
next table: 1958
cur table: 1964
epoch: 1000
next table: 1353
cur table: 1367
epoch: 1000
next table: 2020
cur table: 1958
epoch: 1000
next table: 1362
cur table: 1353
epoch: 1000
next table: 2079
cur table: 2020
epoch: 1000
next table: 1367
cur table: 1362
epoch: 1000
next table: 1983
cur table: 2079
epoch: 1000
next table: 1361
cur table: 1367
epoch: 1000
next table: 1981
cur table: 1983
epoch: 1000
next table: 1362
cur table: 1361
epoch: 1000
next table: 1981
cur table: 1981
epoch: 1000
next table: 1375
cur table: 1362
epoch: 1000
next table: 1993
cur table: 1981
epoch: 1000
next table: 2070
cur table: 1993
epoch: 1000
next table: 1367
cur table: 1375
epoch: 1000
next table: 1999
cur table: 2070
epoch: 1000
next table: 1376
cur table: 1367
epoch: 1000
next table: 1986
cur table: 1999
epoch: 1000
next table: 1368
cur table: 1376
epoch: 1000
next table: 1934
cur table: 1986
epoch: 1000
next table: 1386
cur table: 1368
epoch: 1000
next table: 1991
cur table: 1934
epoch: 1000
next table: 1365
cur table: 1386
epoch: 1000
next table: 2040
cur table: 1991
epoch: 1000
next table: 1358
cur table: 1365
epoch: 1000
next table: 1978
cur table: 2040
epoch: 1000
next table: 1365
cur table: 1358
epoch: 1000
next table: 1992
cur table: 1978
epoch: 1000
next table: 1349
cur table: 1365
epoch: 1000
next table: 1992
cur table: 1992
epoch: 1000
next table: 1358
cur table: 1349
epoch: 1000
next table: 2013
cur table: 1992
epoch: 1000
next table: 1373
cur table: 1358
epoch: 1000
next table: 2078
cur table: 2013
epoch: 1000
next table: 1985
cur table: 2078
epoch: 1000
next table: 1397
cur table: 1373
epoch: 1000
next table: 1984
cur table: 1985
epoch: 1000
next table: 1398
cur table: 1397
epoch: 1000
next table: 1922
cur table: 1984
epoch: 1000
next table: 1395
cur table: 1398
epoch: 1000
next table: 2042
cur table: 1922
epoch: 1000
next table: 1370
cur table: 1395
epoch: 1000
next table: 2051
cur table: 2042
epoch: 1000
next table: 1363
cur table: 1370
epoch: 1000
next table: 2011
cur table: 2051
epoch: 1000
next table: 1362
cur table: 1363
epoch: 1000
next table: 1964
cur table: 2011
epoch: 1000
next table: 1367
cur table: 1362
epoch: 1000
next table: 1962
cur table: 1964
epoch: 1000
next table: 2025
cur table: 1962
epoch: 1000
next table: 1369
cur table: 1367
epoch: 1000
next table: 2035
cur table: 2025
epoch: 1000
next table: 1353
cur table: 1369
epoch: 1000
next table: 1987
cur table: 2035
epoch: 1000
next table: 1363
cur table: 1353
epoch: 1000
next table: 1968
cur table: 1987
epoch: 1000
next table: 1365
cur table: 1363
epoch: 1000
next table: 2004
cur table: 1968
epoch: 1000
next table: 1371
cur table: 1365
epoch: 1000
next table: 2012
cur table: 2004
epoch: 1000
next table: 1364
cur table: 1371
epoch: 1000
next table: 2047
cur table: 2012
epoch: 1000
next table: 1371
cur table: 1364
epoch: 1000
next table: 1945
cur table: 2047
epoch: 1000
next table: 1383
cur table: 1371
epoch: 1000
next table: 1981
cur table: 1945
epoch: 1000
next table: 1361
cur table: 1383
epoch: 1000
next table: 1988
cur table: 1981
epoch: 1000
next table: 2028
cur table: 1988
epoch: 1000
next table: 1374
cur table: 1361
epoch: 1000
next table: 2066
cur table: 2028
epoch: 1000
next table: 1362
cur table: 1374
epoch: 1000
next table: 1988
cur table: 2066
epoch: 1000
next table: 1366
cur table: 1362
epoch: 1000
next table: 1963
cur table: 1988
epoch: 1000
next table: 1405
cur table: 1366
epoch: 1000
next table: 1988
cur table: 1963
epoch: 1000
next table: 1375
cur table: 1405
epoch: 1000
next table: 2007
cur table: 1988
epoch: 1000
next table: 1363
cur table: 1375
epoch: 1000
next table: 2022
cur table: 2007
epoch: 1000
next table: 1357
cur table: 1363
epoch: 1000
next table: 1986
cur table: 2022
epoch: 1000
next table: 1363
cur table: 1357
epoch: 1000
next table: 1986
cur table: 1986
epoch: 1000
next table: 1368
cur table: 1363
epoch: 1000
next table: 1990
cur table: 1986
epoch: 1000
next table: 2013
cur table: 1990
epoch: 1000
next table: 1371
cur table: 1368
epoch: 1000
next table: 2038
cur table: 2013
epoch: 1000
next table: 1370
cur table: 1371
epoch: 1000
next table: 1990
cur table: 2038
epoch: 1000
next table: 1378
cur table: 1370
epoch: 1000
next table: 1987
cur table: 1990
epoch: 1000
next table: 1367
cur table: 1378
epoch: 1000
next table: 1982
cur table: 1987
epoch: 1000
next table: 1375
cur table: 1367
epoch: 1000
next table: 2023
cur table: 1982
epoch: 1000
next table: 1369
cur table: 1375
epoch: 1000
next table: 2040
cur table: 2023
epoch: 1000
next table: 1427
cur table: 1369
epoch: 1000
next table: 1964
cur table: 2040
epoch: 1000
next table: 1988
cur table: 1964
epoch: 1000
next table: 1399
cur table: 1427
epoch: 1000
next table: 1985
cur table: 1988
epoch: 1000
next table: 1366
cur table: 1399
epoch: 1000
next table: 2030
cur table: 1985
epoch: 1000
next table: 1373
cur table: 1366
epoch: 1000
next table: 2034
cur table: 2030
epoch: 1000
next table: 1423
cur table: 1373
epoch: 1000
next table: 1956
cur table: 2034
epoch: 1000
next table: 1372
cur table: 1423
epoch: 1000
next table: 1990
cur table: 1956
epoch: 1000
next table: 1364
cur table: 1372
epoch: 1000
next table: 1992
cur table: 1990
epoch: 1000
next table: 1360
cur table: 1364
epoch: 1000
next table: 2035
cur table: 1992
epoch: 1000
next table: 1365
cur table: 1360
epoch: 1000
next table: 2000
cur table: 2035
epoch: 1000
next table: 1984
cur table: 2000
epoch: 1000
next table: 1354
cur table: 1365
epoch: 1000
next table: 1989
cur table: 1984
epoch: 1000
next table: 1369
cur table: 1354
epoch: 1000
next table: 1990
cur table: 1989
epoch: 1000
next table: 1356
cur table: 1369
epoch: 1000
next table: 2030
cur table: 1990
epoch: 1000
next table: 1373
cur table: 1356
epoch: 1000
next table: 2030
cur table: 2030
epoch: 1000
next table: 1371
cur table: 1373
epoch: 1000
next table: 1983
cur table: 2030
epoch: 1000
next table: 1370
cur table: 1371
epoch: 1000
next table: 1970
cur table: 1983
epoch: 1000
next table: 1372
cur table: 1370
epoch: 1000
next table: 1976
cur table: 1970
epoch: 1000
next table: 1367
cur table: 1372
epoch: 1000
next table: 2045
cur table: 1976
epoch: 1000
next table: 1365
cur table: 1367
epoch: 1000
next table: 2017
cur table: 2045
epoch: 1000
next table: 1363
cur table: 1365
epoch: 1000
next table: 1987
cur table: 2017
epoch: 1000
next table: 1924
cur table: 1987
epoch: 1000
next table: 1366
cur table: 1363
epoch: 1000
next table: 1997
cur table: 1924
epoch: 1000
next table: 1355
cur table: 1366
epoch: 1000
next table: 2076
cur table: 1997
epoch: 1000
next table: 1361
cur table: 1355
epoch: 1000
next table: 1991
cur table: 2076
epoch: 1000
next table: 1360
cur table: 1361
epoch: 1000
next table: 1977
cur table: 1991
epoch: 1000
next table: 1354
cur table: 1360
epoch: 1000
next table: 1988
cur table: 1977
epoch: 1000
next table: 1362
cur table: 1354
epoch: 1000
next table: 1985
cur table: 1988
epoch: 1000
next table: 1367
cur table: 1362
epoch: 1000
next table: 2071
cur table: 1985
epoch: 1000
next table: 1364
cur table: 1367
epoch: 1000
next table: 1992
cur table: 2071
epoch: 1000
next table: 1369
cur table: 1364
epoch: 1000
next table: 1961
cur table: 1992
epoch: 1000
next table: 1990
cur table: 1961
epoch: 1000
next table: 1364
cur table: 1369
epoch: 1000
next table: 2001
cur table: 1990
epoch: 1000
next table: 1373
cur table: 1364
epoch: 1000
next table: 2059
cur table: 2001
epoch: 1000
next table: 1363
cur table: 1373
epoch: 1000
next table: 1981
cur table: 2059
epoch: 1000
next table: 1362
cur table: 1363
epoch: 1000
next table: 1936
cur table: 1981
epoch: 1000
next table: 1353
cur table: 1362
epoch: 1000
next table: 1964
cur table: 1936
epoch: 1000
next table: 1364
cur table: 1353
epoch: 1000
next table: 2039
cur table: 1964
epoch: 1000
next table: 1360
cur table: 1364
epoch: 1000
next table: 2063
cur table: 2039
epoch: 1000
next table: 1362
cur table: 1360
epoch: 1000
next table: 1995
cur table: 2063
epoch: 1000
next table: 1358
cur table: 1362
epoch: 1000
next table: 1964
cur table: 1995
epoch: 1000
next table: 1367
cur table: 1358
epoch: 1000
next table: 1959
cur table: 1964
epoch: 1000
next table: 2011
cur table: 1959
epoch: 1000
next table: 1366
cur table: 1367
epoch: 1000
next table: 2074
cur table: 2011
epoch: 1000
next table: 1363
cur table: 1366
epoch: 1000
next table: 1988
cur table: 2074
epoch: 1000
next table: 1365
cur table: 1363
epoch: 1000
next table: 1973
cur table: 1988
epoch: 1000
next table: 1356
cur table: 1365
epoch: 1000
next table: 1987
cur table: 1973
epoch: 1000
next table: 1371
cur table: 1356
epoch: 1000
next table: 2005
cur table: 1987
epoch: 1000
next table: 1365
cur table: 1371
epoch: 1000
next table: 2066
cur table: 2005
epoch: 1000
next table: 1372
cur table: 1365
epoch: 1000
next table: 1968
cur table: 2066
epoch: 1000
next table: 1357
cur table: 1372
epoch: 1000
next table: 1981
cur table: 1968
epoch: 1000
next table: 1374
cur table: 1357
epoch: 1000
next table: 1986
cur table: 1981
epoch: 1000
next table: 1372
cur table: 1374
epoch: 1000
next table: 2012
cur table: 1986
epoch: 1000
next table: 2058
cur table: 2012
epoch: 1000
next table: 1377
cur table: 1372
epoch: 1000
next table: 1933
cur table: 2058
epoch: 1000
next table: 1363
cur table: 1377
epoch: 1000
next table: 1987
cur table: 1933
epoch: 1000
next table: 1363
cur table: 1363
epoch: 1000
next table: 1956
cur table: 1987
epoch: 1000
next table: 1373
cur table: 1363
epoch: 1000
next table: 2053
cur table: 1956
epoch: 1000
next table: 1370
cur table: 1373
epoch: 1000
next table: 2041
cur table: 2053
epoch: 1000
next table: 1372
cur table: 1370
epoch: 1000
next table: 2004
cur table: 2041
epoch: 1000
next table: 1368
cur table: 1372
epoch: 1000
next table: 1973
cur table: 2004
epoch: 1000
next table: 1362
cur table: 1368
epoch: 1000
next table: 1988
cur table: 1973
epoch: 1000
next table: 1373
cur table: 1362
epoch: 1000
next table: 2000
cur table: 1988
epoch: 1000
next table: 1363
cur table: 1373
epoch: 1000
next table: 2055
cur table: 2000
epoch: 1000
next table: 1992
cur table: 2055
epoch: 1000
next table: 1364
cur table: 1363
epoch: 1000
next table: 1965
cur table: 1992
epoch: 1000
next table: 1379
cur table: 1364
epoch: 1000
next table: 1987
cur table: 1965
epoch: 1000
next table: 1396
cur table: 1379
epoch: 1000
next table: 2028
cur table: 1987
epoch: 1000
next table: 1403
cur table: 1396
epoch: 1000
next table: 2049
cur table: 2028
epoch: 1000
next table: 1363
cur table: 1403
epoch: 1000
next table: 1970
cur table: 2049
epoch: 1000
next table: 1376
cur table: 1363
epoch: 1000
next table: 1993
cur table: 1970
epoch: 1000
next table: 1366
cur table: 1376
epoch: 1000
next table: 1980
cur table: 1993
epoch: 1000
next table: 1998
cur table: 1980
epoch: 1000
next table: 1371
cur table: 1366
epoch: 1000
next table: 2059
cur table: 1998
epoch: 1000
next table: 1368
cur table: 1371
epoch: 1000
next table: 1965
cur table: 2059
epoch: 1000
next table: 1362
cur table: 1368
epoch: 1000
next table: 1984
cur table: 1965
epoch: 1000
next table: 1422
cur table: 1362
epoch: 1000
next table: 1919
cur table: 1984
epoch: 1000
next table: 1359
cur table: 1422
epoch: 1000
next table: 2077
cur table: 1919
epoch: 1000
next table: 1363
cur table: 1359
epoch: 1000
next table: 2020
cur table: 2077
epoch: 1000
next table: 1360
cur table: 1363
epoch: 1000
next table: 1991
cur table: 2020
epoch: 1000
next table: 1362
cur table: 1360
epoch: 1000
next table: 1986
cur table: 1991
epoch: 1000
next table: 1961
cur table: 1986
epoch: 1000
next table: 1361
cur table: 1362
epoch: 1000
next table: 2051
cur table: 1961
epoch: 1000
next table: 1371
cur table: 1361
epoch: 1000
next table: 2009
cur table: 2051
epoch: 1000
next table: 1359
cur table: 1371
epoch: 1000
next table: 1988
cur table: 2009
epoch: 1000
next table: 1361
cur table: 1359
epoch: 1000
next table: 1991
cur table: 1988
epoch: 1000
next table: 1362
cur table: 1361
epoch: 1000
next table: 1981
cur table: 1991
epoch: 1000
next table: 1363
cur table: 1362
epoch: 1000
next table: 2032
cur table: 1981
epoch: 1000
next table: 1368
cur table: 1363
epoch: 1000
next table: 2034
cur table: 2032
epoch: 1000
next table: 1362
cur table: 1368
epoch: 1000
next table: 1960
cur table: 2034
epoch: 1000
next table: 1356
cur table: 1362
epoch: 1000
next table: 1982
cur table: 1960
epoch: 1000
next table: 1364
cur table: 1356
epoch: 1000
next table: 2002
cur table: 1982
epoch: 1000
next table: 2045
cur table: 2002
epoch: 1000
next table: 1364
cur table: 1364
epoch: 1000
next table: 2044
cur table: 2045
epoch: 1000
next table: 1374
cur table: 1364
epoch: 1000
next table: 1963
cur table: 2044
epoch: 1000
next table: 1377
cur table: 1374
epoch: 1000
next table: 1975
cur table: 1963
epoch: 1000
next table: 1362
cur table: 1377
epoch: 1000
next table: 1984
cur table: 1975
epoch: 1000
next table: 1373
cur table: 1362
epoch: 1000
next table: 2033
cur table: 1984
epoch: 1000
next table: 1359
cur table: 1373
epoch: 1000
next table: 2013
cur table: 2033
epoch: 1000
next table: 1374
cur table: 1359
epoch: 1000
next table: 2003
cur table: 2013
epoch: 1000
next table: 1368
cur table: 1374
epoch: 1000
next table: 1965
cur table: 2003
epoch: 1000
next table: 1376
cur table: 1368
epoch: 1000
next table: 2011
cur table: 1965
epoch: 1000
next table: 1369
cur table: 1376
epoch: 1000
next table: 2009
cur table: 2011
epoch: 1000
next table: 2017
cur table: 2009
epoch: 1000
next table: 1372
cur table: 1369
epoch: 1000
next table: 1986
cur table: 2017
epoch: 1000
next table: 1355
cur table: 1372
epoch: 1000
next table: 1988
cur table: 1986
epoch: 1000
next table: 1377
cur table: 1355
epoch: 1000
next table: 1968
cur table: 1988
epoch: 1000
next table: 1361
cur table: 1377
epoch: 1000
next table: 2048
cur table: 1968
epoch: 1000
next table: 1361
cur table: 1361
epoch: 1000
next table: 1984
cur table: 2048
epoch: 1000
next table: 1365
cur table: 1361
epoch: 1000
next table: 1986
cur table: 1984
epoch: 1000
next table: 1380
cur table: 1365
epoch: 1000
next table: 1938
cur table: 1986
epoch: 1000
next table: 1373
cur table: 1380
epoch: 1000
next table: 2016
cur table: 1938
epoch: 1000
next table: 2073
cur table: 2016
epoch: 1000
next table: 1359
cur table: 1373
epoch: 1000
next table: 1988
cur table: 2073
epoch: 1000
next table: 1369
cur table: 1359
epoch: 1000
next table: 1987
cur table: 1988
epoch: 1000
next table: 1371
cur table: 1369
epoch: 1000
next table: 1979
cur table: 1987
epoch: 1000
next table: 1367
cur table: 1371
epoch: 1000
next table: 1968
cur table: 1979
epoch: 1000
next table: 1362
cur table: 1367
epoch: 1000
next table: 2039
cur table: 1968
epoch: 1000
next table: 1360
cur table: 1362
epoch: 1000
next table: 1966
cur table: 2039
epoch: 1000
next table: 1356
cur table: 1360
epoch: 1000
next table: 1988
cur table: 1966
epoch: 1000
next table: 1361
cur table: 1356
epoch: 1000
next table: 1989
cur table: 1988
epoch: 1000
next table: 1358
cur table: 1361
epoch: 1000
next table: 2018
cur table: 1989
epoch: 1000
next table: 1361
cur table: 1358
epoch: 1000
next table: 2071
cur table: 2018
epoch: 1000
next table: 1975
cur table: 2071
epoch: 1000
next table: 1367
cur table: 1361
Heartbeat CPU 0 instructions: 40000002 cycles: 20262162 heartbeat IPC: 1.97472 cumulative IPC: 1.97412 (Simulation time: 0 hr 30 min 28 sec) 
epoch: 1000
next table: 1965
cur table: 1975
epoch: 1000
next table: 1358
cur table: 1367
epoch: 1000
next table: 1935
cur table: 1965
epoch: 1000
next table: 1364
cur table: 1358
epoch: 1000
next table: 2057
cur table: 1935
epoch: 1000
next table: 1367
cur table: 1364
epoch: 1000
next table: 2058
cur table: 2057
epoch: 1000
next table: 1377
cur table: 1367
epoch: 1000
next table: 1988
cur table: 2058
epoch: 1000
next table: 1376
cur table: 1377
epoch: 1000
next table: 1974
cur table: 1988
epoch: 1000
next table: 1371
cur table: 1376
epoch: 1000
next table: 1952
cur table: 1974
epoch: 1000
next table: 1367
cur table: 1371
epoch: 1000
next table: 2055
cur table: 1952
epoch: 1000
next table: 1357
cur table: 1367
epoch: 1000
next table: 2022
cur table: 2055
epoch: 1000
next table: 1356
cur table: 1357
epoch: 1000
next table: 1967
cur table: 2022
epoch: 1000
next table: 1990
cur table: 1967
epoch: 1000
next table: 1367
cur table: 1356
epoch: 1000
next table: 1990
cur table: 1990
epoch: 1000
next table: 1368
cur table: 1367
epoch: 1000
next table: 2033
cur table: 1990
epoch: 1000
next table: 1370
cur table: 1368
epoch: 1000
next table: 2045
cur table: 2033
epoch: 1000
next table: 1362
cur table: 1370
epoch: 1000
next table: 1967
cur table: 2045
epoch: 1000
next table: 1391
cur table: 1362
epoch: 1000
next table: 1981
cur table: 1967
epoch: 1000
next table: 1360
cur table: 1391
epoch: 1000
next table: 1961
cur table: 1981
epoch: 1000
next table: 1371
cur table: 1360
epoch: 1000
next table: 2056
cur table: 1961
epoch: 1000
next table: 1372
cur table: 1371
epoch: 1000
next table: 2034
cur table: 2056
epoch: 1000
next table: 1963
cur table: 2034
epoch: 1000
next table: 1356
cur table: 1372
epoch: 1000
next table: 1973
cur table: 1963
epoch: 1000
next table: 1365
cur table: 1356
epoch: 1000
next table: 1948
cur table: 1973
epoch: 1000
next table: 1352
cur table: 1365
epoch: 1000
next table: 2066
cur table: 1948
epoch: 1000
next table: 1363
cur table: 1352
epoch: 1000
next table: 2028
cur table: 2066
epoch: 1000
next table: 1368
cur table: 1363
epoch: 1000
next table: 1988
cur table: 2028
epoch: 1000
next table: 1363
cur table: 1368
epoch: 1000
next table: 1975
cur table: 1988
epoch: 1000
next table: 1358
cur table: 1363
epoch: 1000
next table: 1969
cur table: 1975
epoch: 1000
next table: 1357
cur table: 1358
epoch: 1000
next table: 2040
cur table: 1969
epoch: 1000
next table: 1358
cur table: 1357
epoch: 1000
next table: 2025
cur table: 2040
epoch: 1000
next table: 1372
cur table: 1358
epoch: 1000
next table: 1987
cur table: 2025
epoch: 1000
next table: 1365
cur table: 1372
epoch: 1000
next table: 1987
cur table: 1987
epoch: 1000
next table: 1989
cur table: 1987
epoch: 1000
next table: 1365
cur table: 1365
epoch: 1000
next table: 2027
cur table: 1989
epoch: 1000
next table: 1373
cur table: 1365
epoch: 1000
next table: 2017
cur table: 2027
epoch: 1000
next table: 1375
cur table: 1373
epoch: 1000
next table: 1987
cur table: 2017
epoch: 1000
next table: 1359
cur table: 1375
epoch: 1000
next table: 1962
cur table: 1987
epoch: 1000
next table: 1359
cur table: 1359
epoch: 1000
next table: 1986
cur table: 1962
epoch: 1000
next table: 1364
cur table: 1359
epoch: 1000
next table: 2058
cur table: 1986
epoch: 1000
next table: 1365
cur table: 1364
epoch: 1000
next table: 2028
cur table: 2058
[...]
next table: 1361
cur table: 1357
epoch: 1000
next table: 1989
cur table: 2015
epoch: 1000
next table: 1363
cur table: 1361
epoch: 1000
next table: 1984
cur table: 1989
epoch: 1000
next table: 1370
cur table: 1363
epoch: 1000
next table: 1964
cur table: 1984
epoch: 1000
next table: 1361
cur table: 1370
epoch: 1000
next table: 2048
cur table: 1964
epoch: 1000
next table: 1386
cur table: 1361
epoch: 1000
next table: 2005
cur table: 2048
epoch: 1000
next table: 1410
cur table: 1386
epoch: 1000
next table: 1996
cur table: 2005
epoch: 1000
next table: 1384
cur table: 1410
epoch: 1000
next table: 1987
cur table: 1996
epoch: 1000
next table: 1964
cur table: 1987
epoch: 1000
next table: 1424
cur table: 1384
epoch: 1000
next table: 2075
cur table: 1964
epoch: 1000
next table: 1436
cur table: 1424
epoch: 1000
next table: 2009
cur table: 2075
epoch: 1000
next table: 1388
cur table: 1436
epoch: 1000
next table: 1936
cur table: 2009
epoch: 1000
next table: 1380
cur table: 1388
epoch: 1000
next table: 2008
cur table: 1936
epoch: 1000
next table: 1353
cur table: 1380
epoch: 1000
next table: 1965
cur table: 2008
epoch: 1000
next table: 1370
cur table: 1353
epoch: 1000
next table: 2077
cur table: 1965
epoch: 1000
next table: 1356
cur table: 1370
epoch: 1000
next table: 1975
cur table: 2077
epoch: 1000
next table: 1979
cur table: 1975
epoch: 1000
next table: 1371
cur table: 1356
epoch: 1000
next table: 1968
cur table: 1979
epoch: 1000
next table: 1374
cur table: 1371
epoch: 1000
next table: 2057
cur table: 1968
epoch: 1000
next table: 1375
cur table: 1374
epoch: 1000
next table: 2057
cur table: 2057
epoch: 1000
next table: 1359
cur table: 1375
epoch: 1000
next table: 1982
cur table: 2057
epoch: 1000
next table: 1355
cur table: 1359
epoch: 1000
next table: 1962
cur table: 1982
epoch: 1000
next table: 1366
cur table: 1355
epoch: 1000
next table: 1987
cur table: 1962
epoch: 1000
next table: 1371
cur table: 1366
epoch: 1000
next table: 2023
cur table: 1987
epoch: 1000
next table: 1363
cur table: 1371
epoch: 1000
next table: 2030
cur table: 2023
epoch: 1000
next table: 1366
cur table: 1363
epoch: 1000
next table: 1934
cur table: 2030
epoch: 1000
next table: 1961
cur table: 1934
epoch: 1000
next table: 1368
cur table: 1366
epoch: 1000
next table: 2002
cur table: 1961
epoch: 1000
next table: 1352
cur table: 1368
epoch: 1000
next table: 2071
cur table: 2002
epoch: 1000
next table: 1364
cur table: 1352
epoch: 1000
next table: 1996
cur table: 2071
epoch: 1000
next table: 1365
cur table: 1364
epoch: 1000
next table: 1991
cur table: 1996
epoch: 1000
next table: 1365
cur table: 1365
epoch: 1000
next table: 2048
cur table: 1991
epoch: 1000
next table: 1375
cur table: 1365
epoch: 1000
next table: 1990
cur table: 2048
epoch: 1000
next table: 1376
cur table: 1375
epoch: 1000
next table: 2059
cur table: 1990
epoch: 1000
next table: 1376
cur table: 1376
epoch: 1000
next table: 1974
cur table: 2059
epoch: 1000
next table: 1373
cur table: 1376
epoch: 1000
next table: 1964
cur table: 1974
epoch: 1000
next table: 1360
cur table: 1373
epoch: 1000
next table: 1963
cur table: 1964
epoch: 1000
next table: 2029
cur table: 1963
epoch: 1000
next table: 1374
cur table: 1360
epoch: 1000
next table: 2036
cur table: 2029
epoch: 1000
next table: 1362
cur table: 1374
epoch: 1000
next table: 1960
cur table: 2036
epoch: 1000
next table: 1373
cur table: 1362
epoch: 1000
next table: 1942
cur table: 1960
epoch: 1000
next table: 1366
cur table: 1373
epoch: 1000
next table: 2008
cur table: 1942
epoch: 1000
next table: 1361
cur table: 1366
epoch: 1000
next table: 2038
cur table: 2008
Heartbeat CPU 0 instructions: 100000003 cycles: 100882397 heartbeat IPC: 0.661211 cumulative IPC: 0.661732 (Simulation time: 0 hr 48 min 24 sec) 
Finished CPU 0 instructions: 50000001 cycles: 75559300 cumulative IPC: 0.661732 (Simulation time: 0 hr 48 min 24 sec) 

ChampSim completed all CPUs

Region of Interest Statistics

CPU 0 cumulative IPC: 0.661732 instructions: 50000001 cycles: 75559300
ITLB TOTAL     ACCESS:    6421863  HIT:    6421863  MISS:          0  HIT %:        100  MISS %:          0   MPKI: 0
ITLB LOAD TRANSLATION ACCESS:    6421863  HIT:    6421863  MISS:          0  HIT %:        100  MISS %:          0   MPKI: 0
ITLB PREFETCH  REQUESTED:          0  ISSUED:          0  USEFUL:          0  USELESS:          0
ITLB USEFUL LOAD PREFETCHES:          0 PREFETCH ISSUED TO LOWER LEVEL:          0  ACCURACY: -nan
ITLB TIMELY PREFETCHES:          0 LATE PREFETCHES: 0 DROPPED PREFETCHES: 0
ITLB PREFETCHES SAME FILL-ORIGIN LEVEL: 0 DIFFERENT FILL-ORIGIN LEVEL: 0
ITLB AVERAGE MISS LATENCY: -nan cycles
ITLB RQ	ACCESS:    6825153	FORWARD:          0	MERGED:     403290	TO_CACHE:    6421863

Revised Interactions: positive negative neutral
ITLB_interactions 0 0 0 -nan -nan -nan
DTLB TOTAL     ACCESS:   22158248  HIT:   21897301  MISS:     260947  HIT %:    98.8223  MISS %:    1.17765   MPKI: 5.21894
DTLB LOAD TRANSLATION ACCESS:   22158248  HIT:   21897301  MISS:     260947  HIT %:    98.8223  MISS %:    1.17765   MPKI: 5.21894
DTLB PREFETCH  REQUESTED:          0  ISSUED:          0  USEFUL:          0  USELESS:          0
DTLB USEFUL LOAD PREFETCHES:          0 PREFETCH ISSUED TO LOWER LEVEL:          0  ACCURACY: -nan
DTLB TIMELY PREFETCHES:          0 LATE PREFETCHES: 0 DROPPED PREFETCHES: 0
DTLB PREFETCHES SAME FILL-ORIGIN LEVEL: 0 DIFFERENT FILL-ORIGIN LEVEL: 0
DTLB AVERAGE MISS LATENCY: 163.346 cycles
DTLB RQ	ACCESS:   24632273	FORWARD:          0	MERGED:    2462463	TO_CACHE:   22169810

Revised Interactions: positive negative neutral
DTLB_interactions 0 0 0 -nan -nan -nan
STLB TOTAL     ACCESS:     260947  HIT:      91171  MISS:     169776  HIT %:    34.9385  MISS %:    65.0615   MPKI: 3.39552
STLB LOAD TRANSLATION ACCESS:     260947  HIT:      91171  MISS:     169776  HIT %:    34.9385  MISS %:    65.0615   MPKI: 3.39552
STLB PREFETCH  REQUESTED:          0  ISSUED:          0  USEFUL:          0  USELESS:          0
STLB USEFUL LOAD PREFETCHES:          0 PREFETCH ISSUED TO LOWER LEVEL:          0  ACCURACY: -nan
STLB TIMELY PREFETCHES:          0 LATE PREFETCHES: 0 DROPPED PREFETCHES: 0
STLB PREFETCHES SAME FILL-ORIGIN LEVEL: 0 DIFFERENT FILL-ORIGIN LEVEL: 0
STLB AVERAGE MISS LATENCY: 219.715 cycles
STLB RQ	ACCESS:     260947	FORWARD:          0	MERGED:          0	TO_CACHE:     260947

Revised Interactions: positive negative neutral
STLB_interactions 0 0 0 -nan -nan -nan
STLB Hit, L1D data hit: 0
STLB Hit, L2C data hit: 0
STLB Hit, LLC data hit: 0
STLB Hit, LLC data miss: 0
STLB STLB hints to L2: 0
L1D TOTAL     ACCESS:   24547632  HIT:   23585631  MISS:     962001  HIT %:    96.0811  MISS %:    3.91892   MPKI: 19.24
L1D LOAD      ACCESS:   21341985  HIT:   20379984  MISS:     962001  HIT %:    95.4924  MISS %:    4.50755   MPKI: 19.24
L1D RFO       ACCESS:    3205647  HIT:    3205647  MISS:          0  HIT %:        100  MISS %:          0   MPKI: 0
L1D PREFETCH  REQUESTED:          0  ISSUED:          0  USEFUL:          0  USELESS:          0
L1D USEFUL LOAD PREFETCHES:          0 PREFETCH ISSUED TO LOWER LEVEL:          0  ACCURACY: -nan
L1D TIMELY PREFETCHES:          0 LATE PREFETCHES: 0 DROPPED PREFETCHES: 0
L1D PREFETCHES SAME FILL-ORIGIN LEVEL: 0 DIFFERENT FILL-ORIGIN LEVEL: 0
L1D AVERAGE MISS LATENCY: 88.5036 cycles
L1D RQ	ACCESS:   31960647	FORWARD:          0	MERGED:   10529501	TO_CACHE:   21426625
L1D WQ	ACCESS:    3205648	FORWARD:       4521	MERGED:          0	TO_CACHE:    3205648

Revised Interactions: positive negative neutral
L1D_interactions 0 0 0 -nan -nan -nan
L1D UNIQUE REGIONS ACCESSED: 0
L1D REGIONS CONFLICTS: 0
L1D Cross Page Prefetch Requests: 0
L1D Same Page Prefetch Requests: 0
L1D ROI Sum of L1D PQ occupancy: 0
L1D PREFETCHES PUSHED FROM L2C: 0
L1I TOTAL     ACCESS:    6825151  HIT:    6825151  MISS:          0  HIT %:        100  MISS %:          0   MPKI: 0
L1I LOAD      ACCESS:    6825151  HIT:    6825151  MISS:          0  HIT %:        100  MISS %:          0   MPKI: 0
L1I PREFETCH  REQUESTED:          0  ISSUED:          0  USEFUL:          0  USELESS:          0
L1I USEFUL LOAD PREFETCHES:          0 PREFETCH ISSUED TO LOWER LEVEL:          0  ACCURACY: -nan
L1I TIMELY PREFETCHES:          0 LATE PREFETCHES: 0 DROPPED PREFETCHES: 0
L1I PREFETCHES SAME FILL-ORIGIN LEVEL: 0 DIFFERENT FILL-ORIGIN LEVEL: 0
L1I AVERAGE MISS LATENCY: -nan cycles
L1I RQ	ACCESS:   15595295	FORWARD:          0	MERGED:    8770142	TO_CACHE:    6825153

Revised Interactions: positive negative neutral
L1I_interactions 0 0 0 -nan -nan -nan
BTB TOTAL     ACCESS:     560940  HIT:     560935  MISS:          5  HIT %:    99.9991  MISS %: 0.000891361   MPKI: 0.0001
BTB BRANCH_DIRECT_JUMP	ACCESS:      40061  HIT:      40060  MISS:          1
BTB BRANCH_INDIRECT	ACCESS:          0  HIT:          0  MISS:          0
BTB BRANCH_CONDITIONAL	ACCESS:     520879  HIT:     520875  MISS:          4
BTB BRANCH_DIRECT_CALL	ACCESS:          0  HIT:          0  MISS:          0
BTB BRANCH_INDIRECT_CALL	ACCESS:          0  HIT:          0  MISS:          0
BTB BRANCH_RETURN	ACCESS:          0  HIT:          0  MISS:          0
BTB BRANCH_OTHER ACCESS:          0  HIT:          0  MISS:          0

L2C TOTAL     ACCESS:    2388497  HIT:    1250634  MISS:    1137863  HIT %:    52.3607  MISS %:    47.6393   MPKI: 22.7573
L2C LOAD      ACCESS:     962000  HIT:     587238  MISS:     374762  HIT %:    61.0435  MISS %:    38.9565   MPKI: 7.49524
L2C DATA LOAD MPKI: 7.49524
L2C INSTRUCTION LOAD MPKI: 0
L2C PREFETCH  ACCESS:     770934  HIT:      32788  MISS:     738146  HIT %:    4.25302  MISS %:     95.747   MPKI: 14.7629
L2C DATA PREFETCH MPKI: 14.7629
L2C INSTRUCTION PREFETCH MPKI: 0
L2C WRITEBACK ACCESS:     485740  HIT:     482355  MISS:       3385  HIT %:    99.3031  MISS %:   0.696875   MPKI: 0.0677
L2C LOAD TRANSLATION ACCESS:     169823  HIT:     148253  MISS:      21570  HIT %:    87.2985  MISS %:    12.7015   MPKI: 0.4314
L2C PREFETCH  REQUESTED:     790007  ISSUED:     790007  USEFUL:     586186  USELESS:     151983
L2C USEFUL LOAD PREFETCHES:     586186 PREFETCH ISSUED TO LOWER LEVEL:     754161  ACCURACY: 77.7269
L2C TIMELY PREFETCHES:     586186 LATE PREFETCHES: 16015 DROPPED PREFETCHES: 0
L2C PREFETCHES SAME FILL-ORIGIN LEVEL: 754161 DIFFERENT FILL-ORIGIN LEVEL: 0
L2C AVERAGE MISS LATENCY: 197.029 cycles
L2C RQ	ACCESS:    1131823	FORWARD:          0	MERGED:          0	TO_CACHE:    1131823
L2C WQ	ACCESS:     485740	FORWARD:          0	MERGED:          0	TO_CACHE:     485740
L2C PQ	ACCESS:     790007	FORWARD:          0	MERGED:          0	TO_CACHE:     790007

Revised Interactions: positive negative neutral
L2C_interactions 583676 155736 47980 74.1278 19.7787 6.09353
L2C Instructions Evicting Data 0
L2C Translations Evicting Data 21483
L2C Data Evicting Data 1091488
L2C Instructions Evicting Instructions 0
L2C Translations Evicting Instructions 0
L2C Data Evicting Instructions 0
L2C Instructions Evicting Translations 0
L2C Translations Evicting Translations 87
L2C Data Evicting Translations 21420
L2C Dense regions hint from L2: 0
PSCL5 TOTAL     ACCESS:     169776  HIT:     169776  MISS:          0  HIT %:        100  MISS %:          0   MPKI: 0
PSCL5 LOAD TRANSLATION ACCESS:     169776  HIT:     169776  MISS:          0  HIT %:        100  MISS %:          0   MPKI: 0
PSCL5 PREFETCH  REQUESTED:          0  ISSUED:          0  USEFUL:          0  USELESS:          0
PSCL5 USEFUL LOAD PREFETCHES:          0 PREFETCH ISSUED TO LOWER LEVEL:          0  ACCURACY: -nan
PSCL5 TIMELY PREFETCHES:          0 LATE PREFETCHES: 0 DROPPED PREFETCHES: 0
PSCL5 PREFETCHES SAME FILL-ORIGIN LEVEL: 0 DIFFERENT FILL-ORIGIN LEVEL: 0

Revised Interactions: positive negative neutral
PSCL5_interactions 0 0 0 -nan -nan -nan
PSCL4 TOTAL     ACCESS:     169776  HIT:     169776  MISS:          0  HIT %:        100  MISS %:          0   MPKI: 0
PSCL4 LOAD TRANSLATION ACCESS:     169776  HIT:     169776  MISS:          0  HIT %:        100  MISS %:          0   MPKI: 0
PSCL4 PREFETCH  REQUESTED:          0  ISSUED:          0  USEFUL:          0  USELESS:          0
PSCL4 USEFUL LOAD PREFETCHES:          0 PREFETCH ISSUED TO LOWER LEVEL:          0  ACCURACY: -nan
PSCL4 TIMELY PREFETCHES:          0 LATE PREFETCHES: 0 DROPPED PREFETCHES: 0
PSCL4 PREFETCHES SAME FILL-ORIGIN LEVEL: 0 DIFFERENT FILL-ORIGIN LEVEL: 0

Revised Interactions: positive negative neutral
PSCL4_interactions 0 0 0 -nan -nan -nan
PSCL3 TOTAL     ACCESS:     169776  HIT:     169776  MISS:          0  HIT %:        100  MISS %:          0   MPKI: 0
PSCL3 LOAD TRANSLATION ACCESS:     169776  HIT:     169776  MISS:          0  HIT %:        100  MISS %:          0   MPKI: 0
PSCL3 PREFETCH  REQUESTED:          0  ISSUED:          0  USEFUL:          0  USELESS:          0
PSCL3 USEFUL LOAD PREFETCHES:          0 PREFETCH ISSUED TO LOWER LEVEL:          0  ACCURACY: -nan
PSCL3 TIMELY PREFETCHES:          0 LATE PREFETCHES: 0 DROPPED PREFETCHES: 0
PSCL3 PREFETCHES SAME FILL-ORIGIN LEVEL: 0 DIFFERENT FILL-ORIGIN LEVEL: 0

Revised Interactions: positive negative neutral
PSCL3_interactions 0 0 0 -nan -nan -nan
PSCL2 TOTAL     ACCESS:     169776  HIT:     169481  MISS:        295  HIT %:    99.8262  MISS %:   0.173758   MPKI: 0.0059
PSCL2 LOAD TRANSLATION ACCESS:     169776  HIT:     169481  MISS:        295  HIT %:    99.8262  MISS %:   0.173758   MPKI: 0.0059
PSCL2 PREFETCH  REQUESTED:          0  ISSUED:          0  USEFUL:          0  USELESS:          0
PSCL2 USEFUL LOAD PREFETCHES:          0 PREFETCH ISSUED TO LOWER LEVEL:          0  ACCURACY: -nan
PSCL2 TIMELY PREFETCHES:          0 LATE PREFETCHES: 0 DROPPED PREFETCHES: 0
PSCL2 PREFETCHES SAME FILL-ORIGIN LEVEL: 0 DIFFERENT FILL-ORIGIN LEVEL: 0

Revised Interactions: positive negative neutral
PSCL2_interactions 0 0 0 -nan -nan -nan
LLC TOTAL     ACCESS:    1620144  HIT:     150848  MISS:    1469296  HIT %:    9.31078  MISS %:    90.6892   MPKI: 29.3859
LLC LOAD      ACCESS:     358747  HIT:      88645  MISS:     270102  HIT %:    24.7096  MISS %:    75.2904   MPKI: 5.40204
LLC PREFETCH  ACCESS:     754161  HIT:      17516  MISS:     736645  HIT %:    2.32258  MISS %:    97.6774   MPKI: 14.7329
LLC WRITEBACK ACCESS:     485666  HIT:      39344  MISS:     446322  HIT %:    8.10104  MISS %:     91.899   MPKI: 8.92644
LLC LOAD TRANSLATION ACCESS:      21570  HIT:       5343  MISS:      16227  HIT %:    24.7705  MISS %:    75.2295   MPKI: 0.32454
LLC PREFETCH  REQUESTED:          0  ISSUED:          0  USEFUL:        542  USELESS:     735978
LLC USEFUL LOAD PREFETCHES:        542 PREFETCH ISSUED TO LOWER LEVEL:     736645  ACCURACY: 0.0735768
LLC TIMELY PREFETCHES:        542 LATE PREFETCHES: 0 DROPPED PREFETCHES: 0
LLC PREFETCHES SAME FILL-ORIGIN LEVEL: 0 DIFFERENT FILL-ORIGIN LEVEL: 0
LLC AVERAGE MISS LATENCY: 123.393 cycles
LLC RQ	ACCESS:     380317	FORWARD:          0	MERGED:          0	TO_CACHE:     380317
LLC WQ	ACCESS:     485666	FORWARD:          0	MERGED:          0	TO_CACHE:     485666
LLC PQ	ACCESS:     754161	FORWARD:          0	MERGED:          0	TO_CACHE:     754161

Revised Interactions: positive negative neutral
LLC_interactions 504 734772 125846 0.0585283 85.3273 14.6142
LLC Dense regions hint to LLC: 0

RAW hits: 49695
Loads Generated: 32010344
Loads sent to L1D: 31960647
Stores Generated: 3205648
Stores sent to L1D: 3205648
Major fault: 0 Minor fault: 257109
Allocated PAGES: 257109
[Bingo] PHT Access: 344092
[Bingo] PHT Hit PC+Addr: 4293
[Bingo] PHT Hit PC+Offs: 333761
[Bingo] PHT Miss: 6038
[Bingo] Prefetch PC+Addr: 0
[Bingo] Prefetch PC+Offs: 0
[Bingo] Useful PC+Addr: 0
[Bingo] Useful PC+Offs: 0
[Bingo] Useless PC+Addr: 0
[Bingo] Useless PC+Offs: 0
[Bingo] L1 Prefetch per Region: 0
[Bingo] L2 Prefetch per Region: 3.3555
[Bingo] L3 Prefetch per Region: 0
[Bingo] No Prefetch per Region: 28.6445
[Bingo] Number of Voters Mean: 14.0084
[Bingo] Number of Voters SD: 14.7669
PHT read accesses: 5385987
PHT write accesses: 325286
AT read accesses: 627351
AT write accesses: 943194
FT read accesses: 984679
FT write accesses: 344092
PS read accesses: 693910
PS write accesses: 338054
PHT tag read accesses: 15808405
PHT tag write accesses: 329579
AT tag read accesses: 49140429
AT tag write accesses: 952637
FT tag read accesses: 42591535
FT tag write accesses: 1003485
PS tag read accesses: 28828417
PS tag write accesses: 1031681

DRAM Statistics
 CHANNEL 0
 RQ ROW_BUFFER_HIT:     451800  ROW_BUFFER_MISS:     571174
 DBUS_CONGESTED:        328
 WQ ROW_BUFFER_HIT:      27990  ROW_BUFFER_MISS:     458002  FULL:          0

 AVG_CONGESTED_CYCLE: 4
 All warmup complete: 2
Channel 0 Bank busy for read cycles: 0
Channel 0 Bank busy for write cycles: 0
Channel 0
Rank 0
0banks busy for read cycles: 22283353
0banks busy for write cycles: 54372
1banks busy for read cycles: 6756284
1banks busy for write cycles: 5237660
2banks busy for read cycles: 5851232
2banks busy for write cycles: 3572675
3banks busy for read cycles: 5391149
3banks busy for write cycles: 2944930
4banks busy for read cycles: 3693150
4banks busy for write cycles: 2621038
5banks busy for read cycles: 3058921
5banks busy for write cycles: 2505276
6banks busy for read cycles: 2481019
6banks busy for write cycles: 2317504
7banks busy for read cycles: 1696211
7banks busy for write cycles: 1788220
8banks busy for read cycles: 2102802
8banks busy for write cycles: 1203505

CPU 0 Branch Prediction Accuracy: 93.3275% MPKI: 0.80204 Average ROB Occupancy at Mispredict: 343.994
Branch types
NOT_BRANCH: 49398961 98.7979%
BRANCH_DIRECT_JUMP: 40061 0.080122%
BRANCH_INDIRECT: 0 0%
BRANCH_CONDITIONAL: 560940 1.12188%
BRANCH_DIRECT_CALL: 0 0%
BRANCH_INDIRECT_CALL: 0 0%
BRANCH_RETURN: 0 0%
BRANCH_OTHER: 0 0%

@sumon_overall_L1D         0         0         0         0         0         0         0
@Sumon_Early_by_class_L1D         0         0         0         0
@Sumon_Late_by_class_L1D         0         0         0         0

@Sumon_Early_by_cycle_L1D         0         0         0         0         0         0         0         0         0         0         0         0
@Sumon_Late_by_cycle_L1D         0         0         0         0         0         0
@Sumon_Early_stream_L1D         0         0         0         0         0         0         0         0         0         0         0         0
@Sumon_Early_CS_L1D         0         0         0         0         0         0         0         0         0         0         0         0
@Sumon_Early_CPLX_L1D         0         0         0         0         0         0         0         0         0         0         0         0
@Sumon_Late_stream_L1D         0         0         0         0         0         0
@Sumon_Late_CS_L1D         0         0         0         0         0         0
@Sumon_Late_CPLX_L1D         0         0         0         0         0         0
@sumon_overall_L2C    586186     16015         0    151983    738146    790007    790007
@Sumon_Early_by_class_L2C         0         0         0         0
@Sumon_Late_by_class_L2C         0         0         0         0

@Sumon_Early_by_cycle_L2C      9458     24364     79285    106300     87229     92242     13218     28545     63148     74603      2624      5170
@Sumon_Late_by_cycle_L2C       702       860      1587      3437      9418        11
@Sumon_Early_stream_L2C         0         0         0         0         0         0         0         0         0         0         0         0
@Sumon_Early_CS_L2C         0         0         0         0         0         0         0         0         0         0         0         0
@Sumon_Early_CPLX_L2C         0         0         0         0         0         0         0         0         0         0         0         0
@Sumon_Late_stream_L2C         0         0         0         0         0         0
@Sumon_Late_CS_L2C         0         0         0         0         0         0
@Sumon_Late_CPLX_L2C         0         0         0         0         0         0
DRAM PAGES: 1048576
Allocated PAGES: 257109
