
*** ChampSim Multicore Out-of-Order Simulator ***

Warmup Instructions: 50000000
Simulation Instructions: 50000000
Number of CPUs: 1
LLC sets: 2048
LLC ways: 16
Off-chip DRAM Size: 4096 MB Channels: 1 Width: 64-bit Data Rate: 6400 MT/s
CPU 0 runs ../../biswa/SPEC2017Traces/654.roms_s-1613B.champsimtrace.xz
.xz
CPU 0 Bimodal branch predictor
BTB has LRU replacement policy
ITLB has LRU replacement policy
DTLB has LRU replacement policy
STLB has LRU replacement policy
L1I has LRU replacement policy
L1D has LRU replacement policy
Bingo PHT WAYS: 16 and PHT_SIZE: 16384
Initialize DRRIP state for L2C
Initialize Hawkeye state
epoch: 1000
next table: 2066
cur table: 9536
epoch: 1000
next table: 1938
cur table: 2066
epoch: 1000
next table: 2106
cur table: 1938
Heartbeat CPU 0 instructions: 10000001 cycles: 2913855 heartbeat IPC: 3.43188 cumulative IPC: 3.43188 (Simulation time: 0 hr 4 min 28 sec) 
epoch: 1000
next table: 2024
cur table: 2106
epoch: 1000
next table: 1975
cur table: 2024
epoch: 1000
next table: 1988
cur table: 1975
epoch: 1000
next table: 1990
cur table: 1988
epoch: 1000
next table: 1995
cur table: 1990
epoch: 1000
next table: 2046
cur table: 1995
epoch: 1000
next table: 1996
cur table: 2046
epoch: 1000
next table: 2008
cur table: 1996
epoch: 1000
next table: 2057
cur table: 2008
epoch: 1000
next table: 1906
cur table: 2057
epoch: 1000
next table: 1883
cur table: 1906
epoch: 1000
next table: 1878
cur table: 1883
Heartbeat CPU 0 instructions: 20000000 cycles: 5827496 heartbeat IPC: 3.43213 cumulative IPC: 3.43201 (Simulation time: 0 hr 8 min 48 sec) 
epoch: 1000
next table: 1914
cur table: 1878
epoch: 1000
next table: 1884
cur table: 1914
epoch: 1000
next table: 1929
cur table: 1884
epoch: 1000
next table: 1982
cur table: 1929
epoch: 1000
next table: 1997
cur table: 1982
epoch: 1000
next table: 2021
cur table: 1997
epoch: 1000
next table: 2033
cur table: 2021
epoch: 1000
next table: 1606
cur table: 15357
epoch: 1000
next table: 1986
cur table: 2033
epoch: 1000
next table: 1502
cur table: 1606
epoch: 1000
next table: 2044
cur table: 1986
epoch: 1000
next table: 1545
cur table: 1502
epoch: 1000
next table: 1989
cur table: 2044
epoch: 1000
next table: 1488
cur table: 1545
epoch: 1000
next table: 2039
cur table: 1989
epoch: 1000
next table: 1472
cur table: 1488
epoch: 1000
next table: 1993
cur table: 2039
epoch: 1000
next table: 1453
cur table: 1472
Heartbeat CPU 0 instructions: 30000000 cycles: 8741140 heartbeat IPC: 3.43213 cumulative IPC: 3.43205 (Simulation time: 0 hr 13 min 4 sec) 
epoch: 1000
next table: 1891
cur table: 1993
epoch: 1000
next table: 1370
cur table: 1453
epoch: 1000
next table: 1861
cur table: 1891
epoch: 1000
next table: 1382
cur table: 1370
epoch: 1000
next table: 1890
cur table: 1861
epoch: 1000
next table: 1367
cur table: 1382
epoch: 1000
next table: 1917
cur table: 1890
epoch: 1000
next table: 1379
cur table: 1367
epoch: 1000
next table: 1898
cur table: 1917
epoch: 1000
next table: 1392
cur table: 1379
epoch: 1000
next table: 2016
cur table: 1898
epoch: 1000
next table: 1452
cur table: 1392
epoch: 1000
next table: 2027
cur table: 2016
epoch: 1000
next table: 1459
cur table: 1452
epoch: 1000
next table: 2013
cur table: 2027
epoch: 1000
next table: 1472
cur table: 1459
epoch: 1000
next table: 2021
cur table: 2013
epoch: 1000
next table: 1469
cur table: 1472
epoch: 1000
next table: 2036
cur table: 2021
epoch: 1000
next table: 1464
cur table: 1469
epoch: 1000
next table: 2004
cur table: 2036
epoch: 1000
next table: 1454
cur table: 1464
epoch: 1000
next table: 2041
cur table: 2004
epoch: 1000
next table: 1485
cur table: 1454
Heartbeat CPU 0 instructions: 40000000 cycles: 11654801 heartbeat IPC: 3.43211 cumulative IPC: 3.43206 (Simulation time: 0 hr 17 min 57 sec) 
epoch: 1000
next table: 1999
cur table: 2041
epoch: 1000
next table: 1468
cur table: 1485
epoch: 1000
next table: 2046
cur table: 1999
epoch: 1000
next table: 1489
cur table: 1468
epoch: 1000
next table: 1970
cur table: 2046
epoch: 1000
next table: 1769
cur table: 1489
epoch: 1000
next table: 1994
cur table: 1970
epoch: 1000
next table: 1606
cur table: 1769
epoch: 1000
next table: 2029
cur table: 1994
epoch: 1000
next table: 1692
cur table: 1606
epoch: 1000
next table: 1989
cur table: 2029
epoch: 1000
next table: 2036
cur table: 1989
epoch: 1000
next table: 1733
cur table: 1692
epoch: 1000
next table: 1999
cur table: 2036
epoch: 1000
next table: 1630
cur table: 1733
epoch: 1000
next table: 2017
cur table: 1999
epoch: 1000
next table: 1563
cur table: 1630
epoch: 1000
next table: 2023
cur table: 2017
epoch: 1000
next table: 1597
cur table: 1563
epoch: 1000
next table: 1994
cur table: 2023
epoch: 1000
next table: 1580
cur table: 1597
epoch: 1000
next table: 2037
cur table: 1994
epoch: 1000
next table: 1615
cur table: 1580
epoch: 1000
next table: 1995
cur table: 2037
epoch: 1000
next table: 1560
cur table: 1615
epoch: 1000
next table: 2020
cur table: 1995
epoch: 1000
next table: 2020
cur table: 2020
epoch: 1000
next table: 1663
cur table: 1560
epoch: 1000
next table: 1998
cur table: 2020
epoch: 1000
next table: 1531
cur table: 1663
epoch: 1000
next table: 2037
cur table: 1998
epoch: 1000
next table: 1580
cur table: 1531
epoch: 1000
next table: 1991
cur table: 2037
epoch: 1000
next table: 1513
cur table: 1580
epoch: 1000
next table: 2024
cur table: 1991
epoch: 1000
next table: 1529
cur table: 1513
epoch: 1000
next table: 2016
cur table: 2024
epoch: 1000
next table: 1529
cur table: 1529
epoch: 1000
next table: 2001
cur table: 2016
epoch: 1000
next table: 1535
cur table: 1529
epoch: 1000
next table: 2038
cur table: 2001
epoch: 1000
next table: 1559
cur table: 1535
epoch: 1000
next table: 1991
cur table: 2038
epoch: 1000
next table: 1540
cur table: 1559
epoch: 1000
next table: 2024
cur table: 1991
epoch: 1000
next table: 1520
cur table: 1540
epoch: 1000
next table: 2016
cur table: 2024
epoch: 1000
next table: 1519
cur table: 1520
epoch: 1000
next table: 2001
cur table: 2016
epoch: 1000
next table: 1509
cur table: 1519
epoch: 1000
next table: 2038
cur table: 2001
epoch: 1000
next table: 1528
cur table: 1509
epoch: 1000
next table: 1987
cur table: 2038
epoch: 1000
next table: 1506
cur table: 1528
epoch: 1000
next table: 2029
cur table: 1987
epoch: 1000
next table: 1522
cur table: 1506
epoch: 1000
next table: 2011
cur table: 2029
epoch: 1000
next table: 1518
cur table: 1522
epoch: 1000
next table: 2001
cur table: 2011
epoch: 1000
next table: 1523
cur table: 1518
epoch: 1000
next table: 2026
cur table: 2001
epoch: 1000
next table: 1580
cur table: 1523
epoch: 1000
next table: 1982
cur table: 2026
epoch: 1000
next table: 1661
cur table: 1580
epoch: 1000
next table: 2022
cur table: 1982
epoch: 1000
next table: 1998
cur table: 2022
epoch: 1000
next table: 1682
cur table: 1661
epoch: 1000
next table: 2006
cur table: 1998
epoch: 1000
next table: 2008
cur table: 2006
epoch: 1000
next table: 1876
cur table: 1682
epoch: 1000
next table: 1993
cur table: 2008
epoch: 1000
next table: 2023
cur table: 1876
epoch: 1000
next table: 2007
cur table: 1993
epoch: 1000
next table: 1993
cur table: 2007
epoch: 1000
next table: 1948
cur table: 2023
epoch: 1000
next table: 2030
cur table: 1993
epoch: 1000
next table: 1982
cur table: 2030
epoch: 1000
next table: 2027
cur table: 1948
epoch: 1000
next table: 2018
cur table: 1982
epoch: 1000
next table: 1986
cur table: 2018
epoch: 1000
next table: 2026
cur table: 2027
epoch: 1000
next table: 2014
cur table: 1986
epoch: 1000
next table: 2003
cur table: 2014
epoch: 1000
next table: 2036
cur table: 2026
epoch: 1000
next table: 1997
cur table: 2003
epoch: 1000
next table: 2017
cur table: 1997
epoch: 1000
next table: 1987
cur table: 2036
epoch: 1000
next table: 1984
cur table: 2017
epoch: 1000
next table: 2029
cur table: 1984
epoch: 1000
next table: 1933
cur table: 1987
epoch: 1000
next table: 1982
cur table: 2029
epoch: 1000
next table: 1652
cur table: 1933
epoch: 1000
next table: 2018
cur table: 1982
epoch: 1000
next table: 1507
cur table: 1652
epoch: 1000
next table: 2002
cur table: 2018
epoch: 1000
next table: 1527
cur table: 1507
epoch: 1000
next table: 1999
cur table: 2002
epoch: 1000
next table: 1510
cur table: 1527
epoch: 1000
next table: 2030
cur table: 1999
epoch: 1000
next table: 1520
cur table: 1510
epoch: 1000
next table: 1972
cur table: 2030
epoch: 1000
next table: 1523
cur table: 1520
epoch: 1000
next table: 2027
cur table: 1972
epoch: 1000
next table: 1505
cur table: 1523
epoch: 1000
next table: 1995
cur table: 2027
epoch: 1000
next table: 1530
cur table: 1505
epoch: 1000
next table: 2007
cur table: 1995
epoch: 1000
next table: 1511
cur table: 1530
epoch: 1000
next table: 2018
cur table: 2007
epoch: 1000
next table: 1518
cur table: 1511
epoch: 1000
next table: 1982
cur table: 2018
epoch: 1000
next table: 1523
cur table: 1518
epoch: 1000
next table: 2029
cur table: 1982
epoch: 1000
next table: 1507
cur table: 1523
epoch: 1000
next table: 1985
cur table: 2029
epoch: 1000
next table: 1527
cur table: 1507
epoch: 1000
next table: 2016
cur table: 1985
epoch: 1000
next table: 1512
cur table: 1527
epoch: 1000
next table: 2005
cur table: 2016
epoch: 1000
next table: 1517
cur table: 1512
epoch: 1000
next table: 1995
cur table: 2005
epoch: 1000
next table: 1523
cur table: 1517
epoch: 1000
next table: 2027
cur table: 1995
epoch: 1000
next table: 1506
cur table: 1523
epoch: 1000
next table: 1982
cur table: 2027
epoch: 1000
next table: 1527
cur table: 1506
epoch: 1000
next table: 2021
cur table: 1982
epoch: 1000
next table: 1732
cur table: 1527
epoch: 1000
next table: 2000
cur table: 2021
epoch: 1000
next table: 1599
cur table: 1732
epoch: 1000
next table: 1899
cur table: 2000
epoch: 1000
next table: 1484
cur table: 1599
epoch: 1000
next table: 1830
cur table: 1899
epoch: 1000
next table: 1476
cur table: 1484
epoch: 1000
next table: 1834
cur table: 1830
epoch: 1000
next table: 1465
cur table: 1476
epoch: 1000
next table: 1869
cur table: 1834
epoch: 1000
next table: 1446
cur table: 1465
epoch: 1000
next table: 1889
cur table: 1869
epoch: 1000
next table: 1508
cur table: 1446
epoch: 1000
next table: 1985
cur table: 1889
epoch: 1000
next table: 1652
cur table: 1508
epoch: 1000
next table: 2008
cur table: 1985
epoch: 1000
next table: 1483
cur table: 1652
epoch: 1000
next table: 1855
cur table: 2008
epoch: 1000
next table: 1445
cur table: 1483
epoch: 1000
next table: 1886
cur table: 1855
epoch: 1000
next table: 1327
cur table: 1445
epoch: 1000
next table: 1892
cur table: 1886
epoch: 1000
next table: 1337
cur table: 1327
epoch: 1000
next table: 1873
cur table: 1892
epoch: 1000
next table: 1305
cur table: 1337
epoch: 1000
next table: 1837
cur table: 1873
epoch: 1000
next table: 1311
cur table: 1305
epoch: 1000
next table: 1826
cur table: 1837
epoch: 1000
next table: 1318
cur table: 1311
epoch: 1000
next table: 1890
cur table: 1826
epoch: 1000
next table: 1339
cur table: 1318
epoch: 1000
next table: 1912
cur table: 1890
epoch: 1000
next table: 1352
cur table: 1339
epoch: 1000
next table: 1930
cur table: 1912
epoch: 1000
next table: 1342
cur table: 1352
epoch: 1000
next table: 1892
cur table: 1930
epoch: 1000
next table: 1325
cur table: 1342
epoch: 1000
next table: 1884
cur table: 1892
epoch: 1000
next table: 1321
cur table: 1325
epoch: 1000
next table: 1886
cur table: 1884
epoch: 1000
next table: 1329
cur table: 1321
epoch: 1000
next table: 1909
cur table: 1886
epoch: 1000
next table: 1313
cur table: 1329
epoch: 1000
next table: 1838
cur table: 1909
epoch: 1000
next table: 1312
cur table: 1313
epoch: 1000
next table: 1845
cur table: 1838
epoch: 1000
next table: 1311
cur table: 1312
epoch: 1000
next table: 1857
cur table: 1845
epoch: 1000
next table: 1330
cur table: 1311
epoch: 1000
next table: 1898
cur table: 1857
epoch: 1000
next table: 1336
cur table: 1330
epoch: 1000
next table: 1893
cur table: 1898
epoch: 1000
next table: 1350
cur table: 1336
epoch: 1000
next table: 1954
cur table: 1893
epoch: 1000
next table: 1324
cur table: 1350
epoch: 1000
next table: 1883
cur table: 1954
epoch: 1000
next table: 1323
cur table: 1324
epoch: 1000
next table: 1885
cur table: 1883
epoch: 1000
next table: 1316
cur table: 1323
epoch: 1000
next table: 1890
cur table: 1885
epoch: 1000
next table: 1335
cur table: 1316
epoch: 1000
next table: 1895
cur table: 1890
epoch: 1000
next table: 1309
cur table: 1335
epoch: 1000
next table: 1821
cur table: 1895
epoch: 1000
next table: 1317
cur table: 1309
epoch: 1000
next table: 1852
cur table: 1821
epoch: 1000
next table: 1330
cur table: 1317
epoch: 1000
next table: 1886
cur table: 1852
epoch: 1000
next table: 1324
cur table: 1330
epoch: 1000
next table: 1891
cur table: 1886
epoch: 1000
next table: 1339
cur table: 1324
epoch: 1000
next table: 1924
cur table: 1891
epoch: 1000
next table: 1352
cur table: 1339
epoch: 1000
next table: 1949
cur table: 1924
epoch: 1000
next table: 1324
cur table: 1352
epoch: 1000
next table: 1842
cur table: 1949
epoch: 1000
next table: 1323
cur table: 1324
epoch: 1000
next table: 1875
cur table: 1842
epoch: 1000
next table: 1326
cur table: 1323
epoch: 1000
next table: 1914
cur table: 1875
epoch: 1000
next table: 1327
cur table: 1326
epoch: 1000
next table: 1864
cur table: 1914
epoch: 1000
next table: 1304
cur table: 1327
epoch: 1000
next table: 1814
cur table: 1864
epoch: 1000
next table: 1320
cur table: 1304
epoch: 1000
next table: 1865
cur table: 1814
epoch: 1000
next table: 1321
cur table: 1320
epoch: 1000
next table: 1888
cur table: 1865
epoch: 1000
next table: 1333
cur table: 1321
epoch: 1000
next table: 1897
cur table: 1888
epoch: 1000
next table: 1341
cur table: 1333
epoch: 1000
next table: 1946
cur table: 1897
epoch: 1000
next table: 1341
cur table: 1341
epoch: 1000
next table: 1919
cur table: 1946
epoch: 1000
next table: 1312
cur table: 1341
epoch: 1000
next table: 1868
cur table: 1919
epoch: 1000
next table: 1339
cur table: 1312
epoch: 1000
next table: 1876
cur table: 1868
epoch: 1000
next table: 1337
cur table: 1339
epoch: 1000
next table: 1922
cur table: 1876
epoch: 1000
next table: 1312
cur table: 1337
epoch: 1000
next table: 1807
cur table: 1922
epoch: 1000
next table: 1307
cur table: 1312
epoch: 1000
next table: 1839
cur table: 1807
epoch: 1000
next table: 1317
cur table: 1307
epoch: 1000
next table: 1885
cur table: 1839
epoch: 1000
next table: 1338
cur table: 1317
epoch: 1000
next table: 1890
cur table: 1885
epoch: 1000
next table: 1354
cur table: 1338
epoch: 1000
next table: 1922
cur table: 1890
epoch: 1000
next table: 1950
cur table: 1922
epoch: 1000
next table: 1361
cur table: 1354
epoch: 1000
next table: 1876
cur table: 1950
epoch: 1000
next table: 1322
cur table: 1361
epoch: 1000
next table: 1840
cur table: 1876
epoch: 1000
next table: 1331
cur table: 1322
epoch: 1000
next table: 1894
cur table: 1840
epoch: 1000
next table: 1336
cur table: 1331
epoch: 1000
next table: 1894
cur table: 1894
epoch: 1000
next table: 1326
cur table: 1336
epoch: 1000
next table: 1844
cur table: 1894
epoch: 1000
next table: 1331
cur table: 1326
epoch: 1000
next table: 1885
cur table: 1844
epoch: 1000
next table: 1312
cur table: 1331
epoch: 1000
next table: 1864
cur table: 1885
epoch: 1000
next table: 1323
cur table: 1312
epoch: 1000
next table: 1902
cur table: 1864
epoch: 1000
next table: 1362
cur table: 1323
epoch: 1000
next table: 1906
cur table: 1902
epoch: 1000
next table: 1383
cur table: 1362
epoch: 1000
next table: 1929
cur table: 1906
epoch: 1000
next table: 1350
cur table: 1383
epoch: 1000
next table: 1860
cur table: 1929
epoch: 1000
next table: 1374
cur table: 1350
epoch: 1000
next table: 1875
cur table: 1860
epoch: 1000
next table: 1374
cur table: 1374
epoch: 1000
next table: 1924
cur table: 1875
epoch: 1000
next table: 1413
cur table: 1374
epoch: 1000
next table: 1853
cur table: 1924
epoch: 1000
next table: 1847
cur table: 1853
epoch: 1000
next table: 1371
cur table: 1413
epoch: 1000
next table: 1865
cur table: 1847
epoch: 1000
next table: 1364
cur table: 1371
epoch: 1000
next table: 1887
cur table: 1865
epoch: 1000
next table: 1345
cur table: 1364
epoch: 1000
next table: 1901
cur table: 1887
epoch: 1000
next table: 1347
cur table: 1345
epoch: 1000
next table: 1942
cur table: 1901
epoch: 1000
next table: 1347
cur table: 1347
epoch: 1000
next table: 1897
cur table: 1942
epoch: 1000
next table: 1321
cur table: 1347
epoch: 1000
next table: 1875
cur table: 1897
epoch: 1000
next table: 1323
cur table: 1321
epoch: 1000
next table: 1892
cur table: 1875
epoch: 1000
next table: 1332
cur table: 1323
epoch: 1000
next table: 1889
cur table: 1892
epoch: 1000
next table: 1344
cur table: 1332
epoch: 1000
next table: 1825
cur table: 1889
epoch: 1000
next table: 1330
cur table: 1344
epoch: 1000
next table: 1854
cur table: 1825
epoch: 1000
next table: 1328
cur table: 1330
epoch: 1000
next table: 1861
cur table: 1854
epoch: 1000
next table: 1322
cur table: 1328
epoch: 1000
next table: 1913
cur table: 1861
epoch: 1000
next table: 1344
cur table: 1322
epoch: 1000
next table: 1892
cur table: 1913
epoch: 1000
next table: 1344
cur table: 1344
epoch: 1000
next table: 1982
cur table: 1892
epoch: 1000
next table: 1336
cur table: 1344
epoch: 1000
next table: 1828
cur table: 1982
epoch: 1000
next table: 1308
cur table: 1336
epoch: 1000
next table: 1887
cur table: 1828
epoch: 1000
next table: 1341
cur table: 1308
epoch: 1000
next table: 1894
cur table: 1887
epoch: 1000
next table: 1332
cur table: 1341
epoch: 1000
next table: 1885
cur table: 1894
epoch: 1000
next table: 1304
cur table: 1332
epoch: 1000
next table: 1850
cur table: 1885
epoch: 1000
next table: 1314
cur table: 1304
epoch: 1000
next table: 1831
cur table: 1850
epoch: 1000
next table: 1317
cur table: 1314
epoch: 1000
next table: 1881
cur table: 1831
epoch: 1000
next table: 1336
cur table: 1317
epoch: 1000
next table: 1895
cur table: 1881
epoch: 1000
next table: 1332
cur table: 1336
epoch: 1000
next table: 1948
cur table: 1895
epoch: 1000
next table: 1350
cur table: 1332
epoch: 1000
next table: 1903
cur table: 1948
epoch: 1000
next table: 1314
cur table: 1350
epoch: 1000
next table: 1874
cur table: 1903
epoch: 1000
next table: 1323
cur table: 1314
epoch: 1000
next table: 1891
cur table: 1874
epoch: 1000
next table: 1330
cur table: 1323
epoch: 1000
next table: 1890
cur table: 1891
epoch: 1000
next table: 1326
cur table: 1330
epoch: 1000
next table: 1884
cur table: 1890
epoch: 1000
next table: 1316
cur table: 1326
epoch: 1000
next table: 1827
cur table: 1884
epoch: 1000
next table: 1312
cur table: 1316
epoch: 1000
next table: 1852
cur table: 1827
epoch: 1000
next table: 1321
cur table: 1312
epoch: 1000
next table: 1892
cur table: 1852
epoch: 1000
next table: 1329
cur table: 1321
epoch: 1000
next table: 1890
cur table: 1892
epoch: 1000
next table: 1349
cur table: 1329
epoch: 1000
next table: 1980
cur table: 1890
epoch: 1000
next table: 1340
cur table: 1349
epoch: 1000
next table: 1854
cur table: 1980
epoch: 1000
next table: 1312
cur table: 1340
epoch: 1000
next table: 1867
cur table: 1854
epoch: 1000
next table: 1325
cur table: 1312
epoch: 1000
next table: 1889
cur table: 1867
epoch: 1000
next table: 1329
cur table: 1325
epoch: 1000
next table: 1936
cur table: 1889
epoch: 1000
next table: 1321
cur table: 1329
epoch: 1000
next table: 1814
cur table: 1936
epoch: 1000
next table: 1304
cur table: 1321
epoch: 1000
next table: 1840
cur table: 1814
epoch: 1000
next table: 1316
cur table: 1304
epoch: 1000
next table: 1863
cur table: 1840
epoch: 1000
next table: 1326
cur table: 1316
epoch: 1000
next table: 1891
cur table: 1863
epoch: 1000
next table: 1331
cur table: 1326
epoch: 1000
next table: 1946
cur table: 1891
epoch: 1000
next table: 1351
cur table: 1331
epoch: 1000
next table: 1926
cur table: 1946
epoch: 1000
next table: 1327
cur table: 1351
epoch: 1000
next table: 1854
cur table: 1926
epoch: 1000
next table: 1316
cur table: 1327
epoch: 1000
next table: 1913
cur table: 1854
epoch: 1000
next table: 1563
cur table: 1316
epoch: 1000
next table: 1886
cur table: 1913
epoch: 1000
next table: 1362
cur table: 1563
epoch: 1000
next table: 1862
cur table: 1886
epoch: 1000
next table: 1378
cur table: 1362
epoch: 1000
next table: 1868
cur table: 1862
epoch: 1000
next table: 1377
cur table: 1378
epoch: 1000
next table: 1906
cur table: 1868
epoch: 1000
next table: 1416
cur table: 1377
epoch: 1000
next table: 1986
cur table: 1906
epoch: 1000
next table: 1460
cur table: 1416
epoch: 1000
next table: 2046
cur table: 1986
epoch: 1000
next table: 1462
cur table: 1460
epoch: 1000
next table: 1987
cur table: 2046
Heartbeat CPU 0 instructions: 50000001 cycles: 15136657 heartbeat IPC: 2.87203 cumulative IPC: 3.30324 (Simulation time: 0 hr 23 min 20 sec) 

Warmup complete CPU 0 instructions: 50000001 cycles: 15136657 (Simulation time: 0 hr 23 min 20 sec) 

epoch: 1000
next table: 2033
cur table: 2022
epoch: 1000
next table: 1520
cur table: 1564
epoch: 1000
next table: 2008
cur table: 2033
epoch: 1000
next table: 1486
cur table: 1520
epoch: 1000
next table: 2000
cur table: 2008
epoch: 1000
next table: 1491
cur table: 1486
epoch: 1000
next table: 2040
cur table: 2000
epoch: 1000
next table: 1484
cur table: 1491
epoch: 1000
next table: 1987
cur table: 2040
epoch: 1000
next table: 1498
cur table: 1484
epoch: 1000
next table: 2009
cur table: 1987
epoch: 1000
next table: 1470
cur table: 1498
epoch: 1000
next table: 1899
cur table: 2009
epoch: 1000
next table: 1397
cur table: 1470
epoch: 1000
next table: 1890
cur table: 1899
epoch: 1000
next table: 1367
cur table: 1397
epoch: 1000
next table: 1901
cur table: 1890
epoch: 1000
next table: 1390
cur table: 1367
epoch: 1000
next table: 1912
cur table: 1901
epoch: 1000
next table: 1384
cur table: 1390
epoch: 1000
next table: 1893
cur table: 1912
epoch: 1000
next table: 1409
cur table: 1384
Heartbeat CPU 0 instructions: 60000001 cycles: 31814930 heartbeat IPC: 0.599582 cumulative IPC: 0.599582 (Simulation time: 0 hr 27 min 45 sec) 
epoch: 1000
next table: 1934
cur table: 1893
epoch: 1000
next table: 1410
cur table: 1409
epoch: 1000
next table: 1952
cur table: 1934
epoch: 1000
next table: 1397
cur table: 1410
epoch: 1000
next table: 1945
cur table: 1952
epoch: 1000
next table: 1398
cur table: 1397
epoch: 1000
next table: 1998
cur table: 1945
epoch: 1000
next table: 1476
cur table: 1398
epoch: 1000
next table: 2047
cur table: 1998
epoch: 1000
next table: 1480
cur table: 1476
epoch: 1000
next table: 1998
cur table: 2047
epoch: 1000
next table: 1460
cur table: 1480
epoch: 1000
next table: 2042
cur table: 1998
epoch: 1000
next table: 1502
cur table: 1460
epoch: 1000
next table: 2003
cur table: 2042
epoch: 1000
next table: 1465
cur table: 1502
epoch: 1000
next table: 2037
cur table: 2003
epoch: 1000
next table: 1487
cur table: 1465
epoch: 1000
next table: 1986
cur table: 2037
epoch: 1000
next table: 1408
cur table: 1487
epoch: 1000
next table: 1876
cur table: 1986
epoch: 1000
next table: 1365
cur table: 1408
epoch: 1000
next table: 1880
cur table: 1876
Heartbeat CPU 0 instructions: 70000003 cycles: 48445331 heartbeat IPC: 0.601309 cumulative IPC: 0.600444 (Simulation time: 0 hr 31 min 35 sec) 
epoch: 1000
next table: 1388
cur table: 1365
epoch: 1000
next table: 1886
cur table: 1880
epoch: 1000
next table: 1369
cur table: 1388
epoch: 1000
next table: 1882
cur table: 1886
epoch: 1000
next table: 1409
cur table: 1369
epoch: 1000
next table: 1924
cur table: 1882
epoch: 1000
next table: 1442
cur table: 1409
epoch: 1000
next table: 2028
cur table: 1924
epoch: 1000
next table: 1464
cur table: 1442
epoch: 1000
next table: 2005
cur table: 2028
epoch: 1000
next table: 1485
cur table: 1464
epoch: 1000
next table: 2015
cur table: 2005
epoch: 1000
next table: 1484
cur table: 1485
epoch: 1000
next table: 2022
cur table: 2015
epoch: 1000
next table: 1479
cur table: 1484
epoch: 1000
next table: 2012
cur table: 2022
epoch: 1000
next table: 1493
cur table: 1479
epoch: 1000
next table: 2016
cur table: 2012
epoch: 1000
next table: 1497
cur table: 1493
epoch: 1000
next table: 2017
cur table: 2016
epoch: 1000
next table: 1503
cur table: 1497
epoch: 1000
next table: 2011
cur table: 2017
epoch: 1000
next table: 2022
cur table: 2011
epoch: 1000
next table: 1507
cur table: 1503
Heartbeat CPU 0 instructions: 80000000 cycles: 65069180 heartbeat IPC: 0.601545 cumulative IPC: 0.600811 (Simulation time: 0 hr 34 min 51 sec) 
epoch: 1000
next table: 1924
cur table: 2022
epoch: 1000
next table: 1428
cur table: 1507
epoch: 1000
next table: 1892
cur table: 1924
epoch: 1000
next table: 1365
cur table: 1428
epoch: 1000
next table: 1901
cur table: 1892
epoch: 1000
next table: 1403
cur table: 1365
epoch: 1000
next table: 1904
cur table: 1901
epoch: 1000
next table: 1395
cur table: 1403
epoch: 1000
next table: 1899
cur table: 1904
epoch: 1000
next table: 1387
cur table: 1395
epoch: 1000
next table: 1916
cur table: 1899
epoch: 1000
next table: 1411
cur table: 1387
epoch: 1000
next table: 1915
cur table: 1916
epoch: 1000
next table: 1379
cur table: 1411
epoch: 1000
next table: 1975
cur table: 1915
epoch: 1000
next table: 1422
cur table: 1379
epoch: 1000
next table: 2023
cur table: 1975
epoch: 1000
next table: 1454
cur table: 1422
epoch: 1000
next table: 2030
cur table: 2023
epoch: 1000
next table: 1470
cur table: 1454
epoch: 1000
next table: 2016
cur table: 2030
epoch: 1000
next table: 1471
cur table: 1470
epoch: 1000
next table: 2023
cur table: 2016
epoch: 1000
next table: 1479
cur table: 1471
Heartbeat CPU 0 instructions: 90000001 cycles: 81689699 heartbeat IPC: 0.601666 cumulative IPC: 0.601024 (Simulation time: 0 hr 37 min 34 sec) 
epoch: 1000
next table: 2021
cur table: 2023
epoch: 1000
next table: 1470
cur table: 1479
epoch: 1000
next table: 2019
cur table: 2021
epoch: 1000
next table: 1495
cur table: 1470
epoch: 1000
next table: 2026
cur table: 2019
epoch: 1000
next table: 1465
cur table: 1495
epoch: 1000
next table: 1885
cur table: 2026
epoch: 1000
next table: 1367
cur table: 1465
epoch: 1000
next table: 1856
cur table: 1885
epoch: 1000
next table: 1375
cur table: 1367
epoch: 1000
next table: 1907
cur table: 1856
epoch: 1000
next table: 1377
cur table: 1375
epoch: 1000
next table: 1897
cur table: 1907
epoch: 1000
next table: 1384
cur table: 1377
epoch: 1000
next table: 1943
cur table: 1897
epoch: 1000
next table: 1373
cur table: 1384
epoch: 1000
next table: 1904
cur table: 1943
epoch: 1000
next table: 1411
cur table: 1373
epoch: 1000
next table: 2004
cur table: 1904
epoch: 1000
next table: 1431
cur table: 1411
epoch: 1000
next table: 1991
cur table: 2004
epoch: 1000
next table: 1444
cur table: 1431
epoch: 1000
next table: 2042
cur table: 1991
epoch: 1000
next table: 1472
cur table: 1444
epoch: 1000
next table: 1987
cur table: 2042
epoch: 1000
next table: 1471
cur table: 1472
Heartbeat CPU 0 instructions: 100000000 cycles: 98320126 heartbeat IPC: 0.601307 cumulative IPC: 0.601081 (Simulation time: 0 hr 40 min 12 sec) 
Finished CPU 0 instructions: 50000001 cycles: 83183470 cumulative IPC: 0.601081 (Simulation time: 0 hr 40 min 12 sec) 

ChampSim completed all CPUs

Region of Interest Statistics

CPU 0 cumulative IPC: 0.601081 instructions: 50000001 cycles: 83183470
ITLB TOTAL     ACCESS:    7481239  HIT:    7481231  MISS:          8  HIT %:    99.9999  MISS %: 0.000106934   MPKI: 0.00016
ITLB LOAD TRANSLATION ACCESS:    7481239  HIT:    7481231  MISS:          8  HIT %:    99.9999  MISS %: 0.000106934   MPKI: 0.00016
ITLB PREFETCH  REQUESTED:          0  ISSUED:          0  USEFUL:          0  USELESS:          0
ITLB USEFUL LOAD PREFETCHES:          0 PREFETCH ISSUED TO LOWER LEVEL:          0  ACCURACY: -nan
ITLB TIMELY PREFETCHES:          0 LATE PREFETCHES: 0 DROPPED PREFETCHES: 0
ITLB PREFETCHES SAME FILL-ORIGIN LEVEL: 0 DIFFERENT FILL-ORIGIN LEVEL: 0
ITLB AVERAGE MISS LATENCY: 283.75 cycles
ITLB RQ	ACCESS:    9852635	FORWARD:          0	MERGED:    2371396	TO_CACHE:    7481239

Revised Interactions: positive negative neutral
ITLB_interactions 0 0 0 -nan -nan -nan
DTLB TOTAL     ACCESS:   10102591  HIT:   10101336  MISS:       1255  HIT %:    99.9876  MISS %:  0.0124226   MPKI: 0.0251
DTLB LOAD TRANSLATION ACCESS:   10102591  HIT:   10101336  MISS:       1255  HIT %:    99.9876  MISS %:  0.0124226   MPKI: 0.0251
DTLB PREFETCH  REQUESTED:          0  ISSUED:          0  USEFUL:          0  USELESS:          0
DTLB USEFUL LOAD PREFETCHES:          0 PREFETCH ISSUED TO LOWER LEVEL:          0  ACCURACY: -nan
DTLB TIMELY PREFETCHES:          0 LATE PREFETCHES: 0 DROPPED PREFETCHES: 0
DTLB PREFETCHES SAME FILL-ORIGIN LEVEL: 0 DIFFERENT FILL-ORIGIN LEVEL: 0
DTLB AVERAGE MISS LATENCY: 77.0406 cycles
DTLB RQ	ACCESS:   12173211	FORWARD:          0	MERGED:    2070566	TO_CACHE:   10102645

Revised Interactions: positive negative neutral
DTLB_interactions 0 0 0 -nan -nan -nan
STLB TOTAL     ACCESS:       1263  HIT:          0  MISS:       1263  HIT %:          0  MISS %:        100   MPKI: 0.02526
STLB LOAD TRANSLATION ACCESS:       1263  HIT:          0  MISS:       1263  HIT %:          0  MISS %:        100   MPKI: 0.02526
STLB PREFETCH  REQUESTED:          0  ISSUED:          0  USEFUL:          0  USELESS:          0
STLB USEFUL LOAD PREFETCHES:          0 PREFETCH ISSUED TO LOWER LEVEL:          0  ACCURACY: -nan
STLB TIMELY PREFETCHES:          0 LATE PREFETCHES: 0 DROPPED PREFETCHES: 0
STLB PREFETCHES SAME FILL-ORIGIN LEVEL: 0 DIFFERENT FILL-ORIGIN LEVEL: 0
STLB AVERAGE MISS LATENCY: 69.35 cycles
STLB RQ	ACCESS:       1263	FORWARD:          0	MERGED:          0	TO_CACHE:       1263

Revised Interactions: positive negative neutral
STLB_interactions 0 0 0 -nan -nan -nan
STLB Hit, L1D data hit: 0
STLB Hit, L2C data hit: 0
STLB Hit, LLC data hit: 0
STLB Hit, LLC data miss: 0
STLB STLB hints to L2: 0
L1D TOTAL     ACCESS:   12162760  HIT:   12104794  MISS:      57966  HIT %:    99.5234  MISS %:   0.476586   MPKI: 1.15932
L1D LOAD      ACCESS:    7237607  HIT:    7202738  MISS:      34869  HIT %:    99.5182  MISS %:   0.481775   MPKI: 0.69738
L1D RFO       ACCESS:    4925153  HIT:    4902056  MISS:      23097  HIT %:     99.531  MISS %:    0.46896   MPKI: 0.46194
L1D PREFETCH  REQUESTED:          0  ISSUED:          0  USEFUL:          0  USELESS:          0
L1D USEFUL LOAD PREFETCHES:          0 PREFETCH ISSUED TO LOWER LEVEL:          0  ACCURACY: -nan
L1D TIMELY PREFETCHES:          0 LATE PREFETCHES: 0 DROPPED PREFETCHES: 0
L1D PREFETCHES SAME FILL-ORIGIN LEVEL: 0 DIFFERENT FILL-ORIGIN LEVEL: 0
L1D AVERAGE MISS LATENCY: 83.8214 cycles
L1D RQ	ACCESS:    9862419	FORWARD:          0	MERGED:    2607901	TO_CACHE:    7247980
L1D WQ	ACCESS:    5290946	FORWARD:       6538	MERGED:     365715	TO_CACHE:    4925231

Revised Interactions: positive negative neutral
L1D_interactions 0 0 0 -nan -nan -nan
L1D UNIQUE REGIONS ACCESSED: 0
L1D REGIONS CONFLICTS: 0
L1D Cross Page Prefetch Requests: 0
L1D Same Page Prefetch Requests: 0
L1D ROI Sum of L1D PQ occupancy: 0
L1D PREFETCHES PUSHED FROM L2C: 0
L1I TOTAL     ACCESS:    9852613  HIT:    9852507  MISS:        106  HIT %:    99.9989  MISS %: 0.00107586   MPKI: 0.00212
L1I LOAD      ACCESS:    9852613  HIT:    9852507  MISS:        106  HIT %:    99.9989  MISS %: 0.00107586   MPKI: 0.00212
L1I PREFETCH  REQUESTED:          0  ISSUED:          0  USEFUL:          0  USELESS:          0
L1I USEFUL LOAD PREFETCHES:          0 PREFETCH ISSUED TO LOWER LEVEL:          0  ACCURACY: -nan
L1I TIMELY PREFETCHES:          0 LATE PREFETCHES: 0 DROPPED PREFETCHES: 0
L1I PREFETCHES SAME FILL-ORIGIN LEVEL: 0 DIFFERENT FILL-ORIGIN LEVEL: 0
L1I AVERAGE MISS LATENCY: 171.075 cycles
L1I RQ	ACCESS:   14414359	FORWARD:          0	MERGED:    4561724	TO_CACHE:    9852635

Revised Interactions: positive negative neutral
L1I_interactions 0 0 0 -nan -nan -nan
BTB TOTAL     ACCESS:    3280393  HIT:    2915465  MISS:     364928  HIT %:    88.8755  MISS %:    11.1245   MPKI: 7.29856
BTB BRANCH_DIRECT_JUMP	ACCESS:     365125  HIT:     365095  MISS:         30
BTB BRANCH_INDIRECT	ACCESS:         16  HIT:         15  MISS:          1
BTB BRANCH_CONDITIONAL	ACCESS:    1456318  HIT:    1456228  MISS:         90
BTB BRANCH_DIRECT_CALL	ACCESS:     729466  HIT:     729429  MISS:         37
BTB BRANCH_INDIRECT_CALL	ACCESS:          0  HIT:          0  MISS:          0
BTB BRANCH_RETURN	ACCESS:     729468  HIT:     364698  MISS:     364770
BTB BRANCH_OTHER ACCESS:          0  HIT:          0  MISS:          0

L2C TOTAL     ACCESS:     117197  HIT:      55595  MISS:      61602  HIT %:    47.4372  MISS %:    52.5628   MPKI: 1.23204
L2C LOAD      ACCESS:      34975  HIT:      31751  MISS:       3224  HIT %:     90.782  MISS %:    9.21801   MPKI: 0.06448
L2C DATA LOAD MPKI: 0.06236
L2C INSTRUCTION LOAD MPKI: 0.00212
L2C RFO       ACCESS:      23097  HIT:          0  MISS:      23097  HIT %:          0  MISS %:        100   MPKI: 0.46194
L2C PREFETCH  ACCESS:      34767  HIT:          0  MISS:      34767  HIT %:          0  MISS %:        100   MPKI: 0.69534
L2C DATA PREFETCH MPKI: 0.69534
L2C INSTRUCTION PREFETCH MPKI: 0
L2C WRITEBACK ACCESS:      23095  HIT:      22772  MISS:        323  HIT %:    98.6014  MISS %:    1.39857   MPKI: 0.00646
L2C LOAD TRANSLATION ACCESS:       1263  HIT:       1072  MISS:        191  HIT %:    84.8773  MISS %:    15.1227   MPKI: 0.00382
L2C PREFETCH  REQUESTED:      34941  ISSUED:      34941  USEFUL:      31751  USELESS:       3014
L2C USEFUL LOAD PREFETCHES:      31751 PREFETCH ISSUED TO LOWER LEVEL:      34836  ACCURACY: 91.1442
L2C TIMELY PREFETCHES:      31751 LATE PREFETCHES: 69 DROPPED PREFETCHES: 0
L2C PREFETCHES SAME FILL-ORIGIN LEVEL: 34836 DIFFERENT FILL-ORIGIN LEVEL: 0
L2C AVERAGE MISS LATENCY: 168.096 cycles
L2C RQ	ACCESS:      59335	FORWARD:          0	MERGED:          0	TO_CACHE:      59335
L2C WQ	ACCESS:      23095	FORWARD:          0	MERGED:          0	TO_CACHE:      23095
L2C PQ	ACCESS:      34941	FORWARD:          0	MERGED:          0	TO_CACHE:      34941

Revised Interactions: positive negative neutral
L2C_interactions 31066 3030 901 88.7676 8.65788 2.57451
L2C Instructions Evicting Data 103
L2C Translations Evicting Data 190
L2C Data Evicting Data 60686
L2C Instructions Evicting Instructions 0
L2C Translations Evicting Instructions 1
L2C Data Evicting Instructions 115
L2C Instructions Evicting Translations 3
L2C Translations Evicting Translations 0
L2C Data Evicting Translations 181
L2C Dense regions hint from L2: 0
PSCL5 TOTAL     ACCESS:       1263  HIT:       1263  MISS:          0  HIT %:        100  MISS %:          0   MPKI: 0
PSCL5 LOAD TRANSLATION ACCESS:       1263  HIT:       1263  MISS:          0  HIT %:        100  MISS %:          0   MPKI: 0
PSCL5 PREFETCH  REQUESTED:          0  ISSUED:          0  USEFUL:          0  USELESS:          0
PSCL5 USEFUL LOAD PREFETCHES:          0 PREFETCH ISSUED TO LOWER LEVEL:          0  ACCURACY: -nan
PSCL5 TIMELY PREFETCHES:          0 LATE PREFETCHES: 0 DROPPED PREFETCHES: 0
PSCL5 PREFETCHES SAME FILL-ORIGIN LEVEL: 0 DIFFERENT FILL-ORIGIN LEVEL: 0

Revised Interactions: positive negative neutral
PSCL5_interactions 0 0 0 -nan -nan -nan
PSCL4 TOTAL     ACCESS:       1263  HIT:       1263  MISS:          0  HIT %:        100  MISS %:          0   MPKI: 0
PSCL4 LOAD TRANSLATION ACCESS:       1263  HIT:       1263  MISS:          0  HIT %:        100  MISS %:          0   MPKI: 0
PSCL4 PREFETCH  REQUESTED:          0  ISSUED:          0  USEFUL:          0  USELESS:          0
PSCL4 USEFUL LOAD PREFETCHES:          0 PREFETCH ISSUED TO LOWER LEVEL:          0  ACCURACY: -nan
PSCL4 TIMELY PREFETCHES:          0 LATE PREFETCHES: 0 DROPPED PREFETCHES: 0
PSCL4 PREFETCHES SAME FILL-ORIGIN LEVEL: 0 DIFFERENT FILL-ORIGIN LEVEL: 0

Revised Interactions: positive negative neutral
PSCL4_interactions 0 0 0 -nan -nan -nan
PSCL3 TOTAL     ACCESS:       1263  HIT:       1263  MISS:          0  HIT %:        100  MISS %:          0   MPKI: 0
PSCL3 LOAD TRANSLATION ACCESS:       1263  HIT:       1263  MISS:          0  HIT %:        100  MISS %:          0   MPKI: 0
PSCL3 PREFETCH  REQUESTED:          0  ISSUED:          0  USEFUL:          0  USELESS:          0
PSCL3 USEFUL LOAD PREFETCHES:          0 PREFETCH ISSUED TO LOWER LEVEL:          0  ACCURACY: -nan
PSCL3 TIMELY PREFETCHES:          0 LATE PREFETCHES: 0 DROPPED PREFETCHES: 0
PSCL3 PREFETCHES SAME FILL-ORIGIN LEVEL: 0 DIFFERENT FILL-ORIGIN LEVEL: 0

Revised Interactions: positive negative neutral
PSCL3_interactions 0 0 0 -nan -nan -nan
PSCL2 TOTAL     ACCESS:       1263  HIT:       1263  MISS:          0  HIT %:        100  MISS %:          0   MPKI: 0
PSCL2 LOAD TRANSLATION ACCESS:       1263  HIT:       1263  MISS:          0  HIT %:        100  MISS %:          0   MPKI: 0
PSCL2 PREFETCH  REQUESTED:          0  ISSUED:          0  USEFUL:          0  USELESS:          0
PSCL2 USEFUL LOAD PREFETCHES:          0 PREFETCH ISSUED TO LOWER LEVEL:          0  ACCURACY: -nan
PSCL2 TIMELY PREFETCHES:          0 LATE PREFETCHES: 0 DROPPED PREFETCHES: 0
PSCL2 PREFETCHES SAME FILL-ORIGIN LEVEL: 0 DIFFERENT FILL-ORIGIN LEVEL: 0

Revised Interactions: positive negative neutral
PSCL2_interactions 0 0 0 -nan -nan -nan
LLC TOTAL     ACCESS:      84416  HIT:       1744  MISS:      82672  HIT %:    2.06596  MISS %:     97.934   MPKI: 1.65344
LLC LOAD      ACCESS:       3155  HIT:        484  MISS:       2671  HIT %:    15.3407  MISS %:    84.6593   MPKI: 0.05342
LLC RFO       ACCESS:      23097  HIT:         16  MISS:      23081  HIT %:  0.0692731  MISS %:    99.9307   MPKI: 0.46162
LLC PREFETCH  ACCESS:      34836  HIT:        759  MISS:      34077  HIT %:    2.17878  MISS %:    97.8212   MPKI: 0.68154
LLC WRITEBACK ACCESS:      23137  HIT:        481  MISS:      22656  HIT %:    2.07892  MISS %:    97.9211   MPKI: 0.45312
LLC LOAD TRANSLATION ACCESS:        191  HIT:          4  MISS:        187  HIT %:    2.09424  MISS %:    97.9058   MPKI: 0.00374
LLC PREFETCH  REQUESTED:          0  ISSUED:          0  USEFUL:          6  USELESS:      32937
LLC USEFUL LOAD PREFETCHES:          6 PREFETCH ISSUED TO LOWER LEVEL:      34077  ACCURACY: 0.0176072
LLC TIMELY PREFETCHES:          6 LATE PREFETCHES: 0 DROPPED PREFETCHES: 0
LLC PREFETCHES SAME FILL-ORIGIN LEVEL: 0 DIFFERENT FILL-ORIGIN LEVEL: 0
LLC AVERAGE MISS LATENCY: 103.066 cycles
LLC RQ	ACCESS:      26443	FORWARD:          0	MERGED:          0	TO_CACHE:      26443
LLC WQ	ACCESS:      23137	FORWARD:          0	MERGED:          0	TO_CACHE:      23137
LLC PQ	ACCESS:      34836	FORWARD:          0	MERGED:          0	TO_CACHE:      34836

Revised Interactions: positive negative neutral
LLC_interactions 7 33541 8719 0.0165614 79.3551 20.6284
LLC Dense regions hint to LLC: 0

RAW hits: 1452808
Loads Generated: 11315228
Loads sent to L1D: 9862419
Stores Generated: 5290943
Stores sent to L1D: 5290946
Major fault: 0 Minor fault: 4460
Allocated PAGES: 4460
[Bingo] PHT Access: 1456
[Bingo] PHT Hit PC+Addr: 158
[Bingo] PHT Hit PC+Offs: 1264
[Bingo] PHT Miss: 34
[Bingo] Prefetch PC+Addr: 0
[Bingo] Prefetch PC+Offs: 0
[Bingo] Useful PC+Addr: 0
[Bingo] Useful PC+Offs: 0
[Bingo] Useless PC+Addr: 0
[Bingo] Useless PC+Offs: 0
[Bingo] L1 Prefetch per Region: 0
[Bingo] L2 Prefetch per Region: 25.6371
[Bingo] L3 Prefetch per Region: 0
[Bingo] No Prefetch per Region: 6.36287
[Bingo] Number of Voters Mean: 15.466
[Bingo] Number of Voters SD: 29.2417
PHT read accesses: 20318
PHT write accesses: 1428
AT read accesses: 34378
AT write accesses: 34843
FT read accesses: 4317
FT write accesses: 1456
PS read accesses: 3994
PS write accesses: 1422
PHT tag read accesses: 64277
PHT tag write accesses: 1586
AT tag read accesses: 1604815
AT tag write accesses: 35808
FT tag read accesses: 1080104
FT tag write accesses: 4343
PS tag read accesses: 613484
PS tag write accesses: 5411

DRAM Statistics
 CHANNEL 0
 RQ ROW_BUFFER_HIT:      34313  ROW_BUFFER_MISS:      25703
 DBUS_CONGESTED:          3
 WQ ROW_BUFFER_HIT:       3495  ROW_BUFFER_MISS:      20829  FULL:          0

 AVG_CONGESTED_CYCLE: 4
 All warmup complete: 2
Channel 0 Bank busy for read cycles: 0
Channel 0 Bank busy for write cycles: 0
Channel 0
Rank 0
0banks busy for read cycles: 78138287
0banks busy for write cycles: 11536
1banks busy for read cycles: 2645017
1banks busy for write cycles: 1580605
2banks busy for read cycles: 31240
2banks busy for write cycles: 70229
3banks busy for read cycles: 25869
3banks busy for write cycles: 48709
4banks busy for read cycles: 23956
4banks busy for write cycles: 38041
5banks busy for read cycles: 27687
5banks busy for write cycles: 40821
6banks busy for read cycles: 29923
6banks busy for write cycles: 40544
7banks busy for read cycles: 55010
7banks busy for write cycles: 44256
8banks busy for read cycles: 248401
8banks busy for write cycles: 83340

CPU 0 Branch Prediction Accuracy: 99.963% MPKI: 0.0378 Average ROB Occupancy at Mispredict: 24.6228
Branch types
NOT_BRANCH: 44889285 89.7786%
BRANCH_DIRECT_JUMP: 365125 0.73025%
BRANCH_INDIRECT: 16 3.2e-05%
BRANCH_CONDITIONAL: 3286278 6.57256%
BRANCH_DIRECT_CALL: 729466 1.45893%
BRANCH_INDIRECT_CALL: 0 0%
BRANCH_RETURN: 729468 1.45894%
BRANCH_OTHER: 0 0%

@sumon_overall_L1D         0         0         0         0         0         0         0
@Sumon_Early_by_class_L1D         0         0         0         0
@Sumon_Late_by_class_L1D         0         0         0         0

@Sumon_Early_by_cycle_L1D         0         0         0         0         0         0         0         0         0         0         0         0
@Sumon_Late_by_cycle_L1D         0         0         0         0         0         0
@Sumon_Early_stream_L1D         0         0         0         0         0         0         0         0         0         0         0         0
@Sumon_Early_CS_L1D         0         0         0         0         0         0         0         0         0         0         0         0
@Sumon_Early_CPLX_L1D         0         0         0         0         0         0         0         0         0         0         0         0
@Sumon_Late_stream_L1D         0         0         0         0         0         0
@Sumon_Late_CS_L1D         0         0         0         0         0         0
@Sumon_Late_CPLX_L1D         0         0         0         0         0         0
@sumon_overall_L2C     31751        69         0      3014     34767     34941     34941
@Sumon_Early_by_class_L2C         0         0         0         0
@Sumon_Late_by_class_L2C         0         0         0         0

@Sumon_Early_by_cycle_L2C       298       527       631       530       513      3011      3765      1563      2098      6279     10470      2066
@Sumon_Late_by_cycle_L2C         1         4        18         4        42         0
@Sumon_Early_stream_L2C         0         0         0         0         0         0         0         0         0         0         0         0
@Sumon_Early_CS_L2C         0         0         0         0         0         0         0         0         0         0         0         0
@Sumon_Early_CPLX_L2C         0         0         0         0         0         0         0         0         0         0         0         0
@Sumon_Late_stream_L2C         0         0         0         0         0         0
@Sumon_Late_CS_L2C         0         0         0         0         0         0
@Sumon_Late_CPLX_L2C         0         0         0         0         0         0
DRAM PAGES: 1048576
Allocated PAGES: 4460
