
*** ChampSim Multicore Out-of-Order Simulator ***

Warmup Instructions: 50000000
Simulation Instructions: 50000000
Number of CPUs: 1
LLC sets: 2048
LLC ways: 16
Off-chip DRAM Size: 4096 MB Channels: 1 Width: 64-bit Data Rate: 6400 MT/s
CPU 0 runs ../../biswa/SPEC2017Traces/654.roms_s-294B.champsimtrace.xz
.xz
CPU 0 Bimodal branch predictor
BTB has LRU replacement policy
ITLB has LRU replacement policy
DTLB has LRU replacement policy
STLB has LRU replacement policy
L1I has LRU replacement policy
L1D has LRU replacement policy
Bingo PHT WAYS: 16 and PHT_SIZE: 16384
Initialize DRRIP state for L2C
Initialize Hawkeye state
epoch: 1000
next table: 2137
cur table: 8280
epoch: 1000
next table: 1944
cur table: 2137
epoch: 1000
next table: 1749
cur table: 1944
epoch: 1000
next table: 1795
cur table: 1749
epoch: 1000
next table: 1990
cur table: 1795
epoch: 1000
next table: 2029
cur table: 1990
epoch: 1000
next table: 1870
cur table: 2029
epoch: 1000
next table: 1837
cur table: 1870
epoch: 1000
next table: 1813
cur table: 1837
epoch: 1000
next table: 1706
cur table: 1813
epoch: 1000
next table: 1906
cur table: 1706
epoch: 1000
next table: 1864
cur table: 1906
epoch: 1000
next table: 1949
cur table: 1864
epoch: 1000
next table: 1816
cur table: 1949
epoch: 1000
next table: 1766
cur table: 1816
epoch: 1000
next table: 1822
cur table: 1766
epoch: 1000
next table: 1817
cur table: 1822
epoch: 1000
next table: 1872
cur table: 1817
epoch: 1000
next table: 1871
cur table: 1872
epoch: 1000
next table: 1844
cur table: 1871
epoch: 1000
next table: 1851
cur table: 1844
epoch: 1000
next table: 1826
cur table: 1851
epoch: 1000
next table: 1677
cur table: 1826
epoch: 1000
next table: 1191
cur table: 6891
epoch: 1000
next table: 1825
cur table: 1677
epoch: 1000
next table: 2009
cur table: 1825
epoch: 1000
next table: 1132
cur table: 1191
epoch: 1000
next table: 1880
cur table: 2009
epoch: 1000
next table: 1108
cur table: 1132
epoch: 1000
next table: 1849
cur table: 1880
epoch: 1000
next table: 1839
cur table: 1849
epoch: 1000
next table: 1102
cur table: 1108
epoch: 1000
next table: 1830
cur table: 1839
epoch: 1000
next table: 1082
cur table: 1102
epoch: 1000
next table: 1701
cur table: 1830
epoch: 1000
next table: 1240
cur table: 1082
epoch: 1000
next table: 1913
cur table: 1701
epoch: 1000
next table: 1091
cur table: 1240
epoch: 1000
next table: 1863
cur table: 1913
epoch: 1000
next table: 2005
cur table: 1863
epoch: 1000
next table: 1093
cur table: 1091
epoch: 1000
next table: 1835
cur table: 2005
epoch: 1000
next table: 1087
cur table: 1093
epoch: 1000
next table: 1686
cur table: 1835
epoch: 1000
next table: 1078
cur table: 1087
epoch: 1000
next table: 1805
cur table: 1686
epoch: 1000
next table: 1079
cur table: 1078
epoch: 1000
next table: 1690
cur table: 1805
epoch: 1000
next table: 2011
cur table: 1690
epoch: 1000
next table: 1074
cur table: 1079
epoch: 1000
next table: 1869
cur table: 2011
epoch: 1000
next table: 1087
cur table: 1074
epoch: 1000
next table: 1935
cur table: 1869
epoch: 1000
next table: 1084
cur table: 1087
epoch: 1000
next table: 1823
cur table: 1935
epoch: 1000
next table: 1080
cur table: 1084
epoch: 1000
next table: 1770
cur table: 1823
epoch: 1000
next table: 1099
cur table: 1080
epoch: 1000
next table: 1809
cur table: 1770
epoch: 1000
next table: 1089
cur table: 1099
epoch: 1000
next table: 1829
cur table: 1809
epoch: 1000
next table: 1071
cur table: 1089
epoch: 1000
next table: 1883
cur table: 1829
epoch: 1000
next table: 1081
cur table: 1071
epoch: 1000
next table: 1863
cur table: 1883
epoch: 1000
next table: 1861
cur table: 1863
epoch: 1000
next table: 1072
cur table: 1081
epoch: 1000
next table: 1823
cur table: 1861
epoch: 1000
next table: 1068
cur table: 1072
epoch: 1000
next table: 1711
cur table: 1823
epoch: 1000
next table: 1132
cur table: 1068
epoch: 1000
next table: 1843
cur table: 1711
epoch: 1000
next table: 1239
cur table: 1132
epoch: 1000
next table: 1886
cur table: 1843
epoch: 1000
next table: 1979
cur table: 1886
epoch: 1000
next table: 1084
cur table: 1239
epoch: 1000
next table: 1826
cur table: 1979
epoch: 1000
next table: 1068
cur table: 1084
epoch: 1000
next table: 1814
cur table: 1826
epoch: 1000
next table: 1067
cur table: 1068
epoch: 1000
next table: 1807
cur table: 1814
epoch: 1000
next table: 1068
cur table: 1067
epoch: 1000
next table: 1786
cur table: 1807
epoch: 1000
next table: 1110
cur table: 1068
epoch: 1000
next table: 1818
cur table: 1786
epoch: 1000
next table: 1125
cur table: 1110
epoch: 1000
next table: 1883
cur table: 1818
epoch: 1000
next table: 1070
cur table: 1125
epoch: 1000
next table: 1857
cur table: 1883
epoch: 1000
next table: 1071
cur table: 1070
epoch: 1000
next table: 1850
cur table: 1857
epoch: 1000
next table: 1084
cur table: 1071
epoch: 1000
next table: 1850
cur table: 1850
epoch: 1000
next table: 1059
cur table: 1084
epoch: 1000
next table: 1822
cur table: 1850
epoch: 1000
next table: 1071
cur table: 1059
epoch: 1000
next table: 1672
cur table: 1822
epoch: 1000
next table: 1065
cur table: 1071
epoch: 1000
next table: 1835
cur table: 1672
epoch: 1000
next table: 1084
cur table: 1065
epoch: 1000
next table: 2017
cur table: 1835
epoch: 1000
next table: 1078
cur table: 1084
epoch: 1000
next table: 1874
cur table: 2017
epoch: 1000
next table: 1852
cur table: 1874
epoch: 1000
next table: 1130
cur table: 1078
epoch: 1000
next table: 1836
cur table: 1852
epoch: 1000
next table: 1079
cur table: 1130
epoch: 1000
next table: 1825
cur table: 1836
epoch: 1000
next table: 1240
cur table: 1079
epoch: 1000
next table: 1755
cur table: 1825
epoch: 1000
next table: 1083
cur table: 1240
epoch: 1000
next table: 2016
cur table: 1755
epoch: 1000
next table: 1081
cur table: 1083
epoch: 1000
next table: 1876
cur table: 2016
epoch: 1000
next table: 1058
cur table: 1081
epoch: 1000
next table: 1853
cur table: 1876
epoch: 1000
next table: 1074
cur table: 1058
epoch: 1000
next table: 1830
cur table: 1853
epoch: 1000
next table: 1073
cur table: 1074
epoch: 1000
next table: 1817
cur table: 1830
epoch: 1000
next table: 1078
cur table: 1073
epoch: 1000
next table: 1669
cur table: 1817
epoch: 1000
next table: 1067
cur table: 1078
epoch: 1000
next table: 1841
cur table: 1669
epoch: 1000
next table: 1067
cur table: 1067
epoch: 1000
next table: 1995
cur table: 1841
epoch: 1000
next table: 1061
cur table: 1067
epoch: 1000
next table: 1894
cur table: 1995
epoch: 1000
next table: 1089
cur table: 1061
epoch: 1000
next table: 1845
cur table: 1894
epoch: 1000
next table: 1069
cur table: 1089
epoch: 1000
next table: 1747
cur table: 1845
epoch: 1000
next table: 1059
cur table: 1069
epoch: 1000
next table: 1797
cur table: 1747
epoch: 1000
next table: 1057
cur table: 1059
epoch: 1000
next table: 1787
cur table: 1797
epoch: 1000
next table: 1848
cur table: 1787
epoch: 1000
next table: 1081
cur table: 1057
epoch: 1000
next table: 1878
cur table: 1848
epoch: 1000
next table: 1071
cur table: 1081
epoch: 1000
next table: 2011
cur table: 1878
epoch: 1000
next table: 1061
cur table: 1071
epoch: 1000
next table: 1848
cur table: 2011
epoch: 1000
next table: 1090
cur table: 1061
epoch: 1000
next table: 1689
cur table: 1848
epoch: 1000
next table: 1064
cur table: 1090
epoch: 1000
next table: 1837
cur table: 1689
epoch: 1000
next table: 1228
cur table: 1064
epoch: 1000
next table: 1884
cur table: 1837
epoch: 1000
next table: 1064
cur table: 1228
epoch: 1000
next table: 1889
cur table: 1884
epoch: 1000
next table: 1073
cur table: 1064
epoch: 1000
next table: 1865
cur table: 1889
epoch: 1000
next table: 1061
cur table: 1073
epoch: 1000
next table: 1850
cur table: 1865
epoch: 1000
next table: 1065
cur table: 1061
epoch: 1000
next table: 1819
cur table: 1850
epoch: 1000
next table: 1065
cur table: 1065
epoch: 1000
next table: 1688
cur table: 1819
epoch: 1000
next table: 1066
cur table: 1065
epoch: 1000
next table: 1809
cur table: 1688
epoch: 1000
next table: 1057
cur table: 1066
epoch: 1000
next table: 1843
cur table: 1809
epoch: 1000
next table: 1078
cur table: 1057
epoch: 1000
next table: 2004
cur table: 1843
epoch: 1000
next table: 1072
cur table: 1078
epoch: 1000
next table: 1849
cur table: 2004
epoch: 1000
next table: 1065
cur table: 1072
epoch: 1000
next table: 1856
cur table: 1849
epoch: 1000
next table: 1066
cur table: 1065
epoch: 1000
next table: 1828
cur table: 1856
epoch: 1000
next table: 1065
cur table: 1066
epoch: 1000
next table: 1676
cur table: 1828
epoch: 1000
next table: 1119
cur table: 1065
epoch: 1000
next table: 1820
cur table: 1676
epoch: 1000
next table: 1080
cur table: 1119
epoch: 1000
next table: 1853
cur table: 1820
epoch: 1000
next table: 1072
cur table: 1080
epoch: 1000
next table: 1983
cur table: 1853
epoch: 1000
next table: 1064
cur table: 1072
epoch: 1000
next table: 1845
cur table: 1983
epoch: 1000
next table: 1071
cur table: 1064
epoch: 1000
next table: 1814
cur table: 1845
epoch: 1000
next table: 1066
cur table: 1071
epoch: 1000
next table: 1816
cur table: 1814
epoch: 1000
next table: 1821
cur table: 1816
epoch: 1000
next table: 1210
cur table: 1066
epoch: 1000
next table: 1882
cur table: 1821
epoch: 1000
next table: 1064
cur table: 1210
epoch: 1000
next table: 1874
cur table: 1882
epoch: 1000
next table: 1075
cur table: 1064
epoch: 1000
next table: 1970
cur table: 1874
epoch: 1000
next table: 1067
cur table: 1075
epoch: 1000
next table: 1816
cur table: 1970
epoch: 1000
next table: 1063
cur table: 1067
epoch: 1000
next table: 1752
cur table: 1816
epoch: 1000
next table: 1064
cur table: 1063
epoch: 1000
next table: 1829
cur table: 1752
epoch: 1000
next table: 1094
cur table: 1064
epoch: 1000
next table: 1662
cur table: 1829
epoch: 1000
next table: 1096
cur table: 1094
epoch: 1000
next table: 1841
cur table: 1662
epoch: 1000
next table: 1066
cur table: 1096
epoch: 1000
next table: 2031
cur table: 1841
epoch: 1000
next table: 1064
cur table: 1066
epoch: 1000
next table: 1855
cur table: 2031
epoch: 1000
next table: 1086
cur table: 1064
epoch: 1000
next table: 1855
cur table: 1855
epoch: 1000
next table: 1067
cur table: 1086
epoch: 1000
next table: 1825
cur table: 1855
epoch: 1000
next table: 1063
cur table: 1067
epoch: 1000
next table: 1692
cur table: 1825
epoch: 1000
next table: 1083
cur table: 1063
epoch: 1000
next table: 1804
cur table: 1692
epoch: 1000
next table: 1071
cur table: 1083
epoch: 1000
next table: 1856
cur table: 1804
epoch: 1000
next table: 1072
cur table: 1071
epoch: 1000
next table: 2010
cur table: 1856
epoch: 1000
next table: 1082
cur table: 1072
epoch: 1000
next table: 1874
cur table: 2010
epoch: 1000
next table: 1067
cur table: 1082
epoch: 1000
next table: 1847
cur table: 1874
epoch: 1000
next table: 1062
cur table: 1067
epoch: 1000
next table: 1825
cur table: 1847
epoch: 1000
next table: 1251
cur table: 1062
epoch: 1000
next table: 1768
cur table: 1825
epoch: 1000
next table: 1069
cur table: 1251
epoch: 1000
next table: 1856
cur table: 1768
epoch: 1000
next table: 1083
cur table: 1069
epoch: 1000
next table: 2014
cur table: 1856
epoch: 1000
next table: 1062
cur table: 1083
epoch: 1000
next table: 1876
cur table: 2014
epoch: 1000
next table: 1062
cur table: 1062
epoch: 1000
next table: 1844
cur table: 1876
epoch: 1000
next table: 1064
cur table: 1062
epoch: 1000
next table: 1816
cur table: 1844
epoch: 1000
next table: 1057
cur table: 1064
epoch: 1000
next table: 1663
cur table: 1816
epoch: 1000
next table: 1060
cur table: 1057
epoch: 1000
next table: 1813
cur table: 1663
epoch: 1000
next table: 1080
cur table: 1060
epoch: 1000
next table: 1861
cur table: 1813
epoch: 1000
next table: 1866
cur table: 1861
epoch: 1000
next table: 1071
cur table: 1080
epoch: 1000
next table: 1948
cur table: 1866
epoch: 1000
next table: 1074
cur table: 1071
epoch: 1000
next table: 1829
cur table: 1948
epoch: 1000
next table: 1062
cur table: 1074
epoch: 1000
next table: 1766
cur table: 1829
epoch: 1000
next table: 1075
cur table: 1062
epoch: 1000
next table: 1797
cur table: 1766
epoch: 1000
next table: 1067
cur table: 1075
epoch: 1000
next table: 1680
cur table: 1797
epoch: 1000
next table: 1070
cur table: 1067
epoch: 1000
next table: 1864
cur table: 1680
epoch: 1000
next table: 1071
cur table: 1070
epoch: 1000
next table: 2022
cur table: 1864
epoch: 1000
next table: 1081
cur table: 1071
epoch: 1000
next table: 1861
cur table: 2022
epoch: 1000
next table: 1066
cur table: 1081
epoch: 1000
next table: 1837
cur table: 1861
epoch: 1000
next table: 1061
cur table: 1066
epoch: 1000
next table: 1800
cur table: 1837
epoch: 1000
next table: 1232
cur table: 1061
epoch: 1000
next table: 1796
cur table: 1800
epoch: 1000
next table: 1063
cur table: 1232
epoch: 1000
next table: 1855
cur table: 1796
Heartbeat CPU 0 instructions: 10000001 cycles: 3210957 heartbeat IPC: 3.11434 cumulative IPC: 3.11434 (Simulation time: 0 hr 5 min 23 sec) 
epoch: 1000
next table: 1083
cur table: 1063
epoch: 1000
next table: 2026
cur table: 1855
epoch: 1000
next table: 1062
cur table: 1083
epoch: 1000
next table: 1868
cur table: 2026
epoch: 1000
next table: 1074
cur table: 1062
epoch: 1000
next table: 1833
cur table: 1868
epoch: 1000
next table: 1059
cur table: 1074
epoch: 1000
next table: 1722
cur table: 1833
epoch: 1000
next table: 1061
cur table: 1059
epoch: 1000
next table: 1793
cur table: 1722
epoch: 1000
next table: 1059
cur table: 1061
epoch: 1000
next table: 1820
cur table: 1793
epoch: 1000
next table: 1070
cur table: 1059
epoch: 1000
next table: 1855
cur table: 1820
epoch: 1000
next table: 1064
cur table: 1070
epoch: 1000
next table: 2014
cur table: 1855
epoch: 1000
next table: 1084
cur table: 1064
epoch: 1000
next table: 1848
cur table: 2014
epoch: 1000
next table: 1079
cur table: 1084
epoch: 1000
next table: 1843
cur table: 1848
epoch: 1000
next table: 1071
cur table: 1079
epoch: 1000
next table: 1681
cur table: 1843
epoch: 1000
next table: 1096
cur table: 1071
epoch: 1000
next table: 1747
cur table: 1681
epoch: 1000
next table: 1746
cur table: 1747
epoch: 1000
next table: 1084
cur table: 1096
epoch: 1000
next table: 1833
cur table: 1746
epoch: 1000
next table: 1084
cur table: 1084
epoch: 1000
next table: 1845
cur table: 1833
epoch: 1000
next table: 1075
cur table: 1084
epoch: 1000
next table: 1852
cur table: 1845
epoch: 1000
next table: 1080
cur table: 1075
epoch: 1000
next table: 1807
cur table: 1852
epoch: 1000
next table: 1071
cur table: 1080
epoch: 1000
next table: 1711
cur table: 1807
epoch: 1000
next table: 1193
cur table: 1071
epoch: 1000
next table: 1714
cur table: 1711
epoch: 1000
next table: 1067
cur table: 1193
epoch: 1000
next table: 1987
cur table: 1714
epoch: 1000
next table: 1083
cur table: 1067
epoch: 1000
next table: 1870
cur table: 1987
epoch: 1000
next table: 1078
cur table: 1083
epoch: 1000
next table: 1966
cur table: 1870
epoch: 1000
next table: 1821
cur table: 1966
epoch: 1000
next table: 1064
cur table: 1078
epoch: 1000
next table: 1763
cur table: 1821
epoch: 1000
next table: 1075
cur table: 1064
epoch: 1000
next table: 1817
cur table: 1763
epoch: 1000
next table: 1090
cur table: 1075
epoch: 1000
next table: 1668
cur table: 1817
epoch: 1000
next table: 1095
cur table: 1090
epoch: 1000
next table: 1990
cur table: 1668
epoch: 1000
next table: 1062
cur table: 1095
epoch: 1000
next table: 1891
cur table: 1990
epoch: 1000
next table: 1108
cur table: 1062
epoch: 1000
next table: 1857
cur table: 1891
epoch: 1000
next table: 1078
cur table: 1108
epoch: 1000
next table: 1853
cur table: 1857
epoch: 1000
next table: 1061
cur table: 1078
epoch: 1000
next table: 1825
cur table: 1853
epoch: 1000
next table: 1068
cur table: 1061
epoch: 1000
next table: 1698
cur table: 1825
epoch: 1000
next table: 1096
cur table: 1068
epoch: 1000
next table: 1799
cur table: 1698
epoch: 1000
next table: 1080
cur table: 1096
epoch: 1000
next table: 1857
cur table: 1799
epoch: 1000
next table: 1066
cur table: 1080
epoch: 1000
next table: 2017
cur table: 1857
epoch: 1000
next table: 1068
cur table: 1066
epoch: 1000
next table: 1866
cur table: 2017
epoch: 1000
next table: 1065
cur table: 1068
epoch: 1000
next table: 1843
cur table: 1866
epoch: 1000
next table: 1087
cur table: 1065
epoch: 1000
next table: 1813
cur table: 1843
epoch: 1000
next table: 1263
cur table: 1087
epoch: 1000
next table: 1790
cur table: 1813
epoch: 1000
next table: 1095
cur table: 1263
epoch: 1000
next table: 1852
cur table: 1790
epoch: 1000
next table: 2032
cur table: 1852
epoch: 1000
next table: 1075
cur table: 1095
epoch: 1000
next table: 1852
cur table: 2032
epoch: 1000
next table: 1077
cur table: 1075
epoch: 1000
next table: 1846
cur table: 1852
epoch: 1000
next table: 1062
cur table: 1077
epoch: 1000
next table: 1830
cur table: 1846
epoch: 1000
next table: 1058
cur table: 1062
epoch: 1000
next table: 1662
cur table: 1830
epoch: 1000
next table: 1064
cur table: 1058
epoch: 1000
next table: 1826
cur table: 1662
epoch: 1000
next table: 1061
cur table: 1064
epoch: 1000
next table: 1850
cur table: 1826
epoch: 1000
next table: 1074
cur table: 1061
epoch: 1000
next table: 2022
cur table: 1850
epoch: 1000
next table: 1065
cur table: 1074
epoch: 1000
next table: 1850
cur table: 2022
epoch: 1000
next table: 1066
cur table: 1065
epoch: 1000
next table: 1854
cur table: 1850
epoch: 1000
next table: 1064
cur table: 1066
epoch: 1000
next table: 1716
cur table: 1854
epoch: 1000
next table: 1089
cur table: 1064
epoch: 1000
next table: 1782
cur table: 1716
epoch: 1000
next table: 1059
cur table: 1089
epoch: 1000
next table: 1826
cur table: 1782
epoch: 1000
next table: 1071
cur table: 1059
epoch: 1000
next table: 1873
cur table: 1826
epoch: 1000
next table: 1082
cur table: 1071
epoch: 1000
next table: 2010
cur table: 1873
epoch: 1000
next table: 1065
cur table: 1082
epoch: 1000
next table: 1859
cur table: 2010
epoch: 1000
next table: 1066
cur table: 1065
epoch: 1000
next table: 1837
cur table: 1859
epoch: 1000
next table: 1204
cur table: 1066
epoch: 1000
next table: 1758
cur table: 1837
epoch: 1000
next table: 1070
cur table: 1204
epoch: 1000
next table: 1825
cur table: 1758
epoch: 1000
next table: 1077
cur table: 1070
epoch: 1000
next table: 1889
cur table: 1825
epoch: 1000
next table: 1072
cur table: 1077
epoch: 1000
next table: 1863
cur table: 1889
epoch: 1000
next table: 1063
cur table: 1072
epoch: 1000
next table: 2010
cur table: 1863
epoch: 1000
next table: 1071
cur table: 1063
epoch: 1000
next table: 1829
cur table: 2010
epoch: 1000
next table: 1055
cur table: 1071
epoch: 1000
next table: 1678
cur table: 1829
epoch: 1000
next table: 1068
cur table: 1055
epoch: 1000
next table: 1675
cur table: 1678
epoch: 1000
next table: 1063
cur table: 1068
epoch: 1000
next table: 1814
cur table: 1675
epoch: 1000
next table: 1067
cur table: 1063
epoch: 1000
next table: 2006
cur table: 1814
epoch: 1000
next table: 1087
cur table: 1067
epoch: 1000
next table: 1873
cur table: 2006
epoch: 1000
next table: 1064
cur table: 1087
epoch: 1000
next table: 1850
cur table: 1873
epoch: 1000
next table: 1066
cur table: 1064
epoch: 1000
next table: 1860
cur table: 1850
epoch: 1000
next table: 1061
cur table: 1066
epoch: 1000
next table: 1817
cur table: 1860
epoch: 1000
next table: 1088
cur table: 1061
epoch: 1000
next table: 1659
cur table: 1817
epoch: 1000
next table: 1062
cur table: 1088
epoch: 1000
next table: 1833
cur table: 1659
epoch: 1000
next table: 1071
cur table: 1062
epoch: 1000
next table: 2002
cur table: 1833
epoch: 1000
next table: 1067
cur table: 1071
epoch: 1000
next table: 1888
cur table: 2002
epoch: 1000
next table: 1078
cur table: 1067
epoch: 1000
next table: 1854
cur table: 1888
epoch: 1000
next table: 1126
cur table: 1078
epoch: 1000
next table: 1806
cur table: 1854
epoch: 1000
next table: 1163
cur table: 1126
epoch: 1000
next table: 1765
cur table: 1806
epoch: 1000
next table: 1846
cur table: 1765
epoch: 1000
next table: 1067
cur table: 1163
epoch: 1000
next table: 2004
cur table: 1846
epoch: 1000
next table: 1082
cur table: 1067
epoch: 1000
next table: 1897
cur table: 2004
epoch: 1000
next table: 1085
cur table: 1082
epoch: 1000
next table: 1862
cur table: 1897
epoch: 1000
next table: 1063
cur table: 1085
epoch: 1000
next table: 1828
cur table: 1862
epoch: 1000
next table: 1068
cur table: 1063
epoch: 1000
next table: 1706
cur table: 1828
epoch: 1000
next table: 1082
cur table: 1068
epoch: 1000
next table: 1800
cur table: 1706
epoch: 1000
next table: 1090
cur table: 1082
epoch: 1000
next table: 1826
cur table: 1800
epoch: 1000
next table: 1066
cur table: 1090
epoch: 1000
next table: 1870
cur table: 1826
epoch: 1000
next table: 1069
cur table: 1066
epoch: 1000
next table: 2005
cur table: 1870
epoch: 1000
next table: 1073
cur table: 1069
epoch: 1000
next table: 1862
cur table: 2005
epoch: 1000
next table: 1068
cur table: 1073
epoch: 1000
next table: 1832
cur table: 1862
epoch: 1000
next table: 1063
cur table: 1068
epoch: 1000
next table: 1676
cur table: 1832
epoch: 1000
next table: 1078
cur table: 1063
epoch: 1000
next table: 1800
cur table: 1676
epoch: 1000
next table: 1084
cur table: 1078
epoch: 1000
next table: 1856
cur table: 1800
epoch: 1000
next table: 1085
cur table: 1084
epoch: 1000
next table: 1862
cur table: 1856
epoch: 1000
next table: 1059
cur table: 1085
epoch: 1000
next table: 1980
cur table: 1862
epoch: 1000
next table: 1069
cur table: 1059
epoch: 1000
next table: 1821
cur table: 1980
epoch: 1000
next table: 1070
cur table: 1069
epoch: 1000
next table: 1818
cur table: 1821
epoch: 1000
next table: 1237
cur table: 1070
epoch: 1000
next table: 1702
cur table: 1818
epoch: 1000
next table: 1081
cur table: 1237
epoch: 1000
next table: 1820
cur table: 1702
epoch: 1000
next table: 1073
cur table: 1081
epoch: 1000
next table: 2007
cur table: 1820
epoch: 1000
next table: 1072
cur table: 1073
epoch: 1000
next table: 1881
cur table: 2007
epoch: 1000
next table: 1068
cur table: 1072
epoch: 1000
next table: 1906
cur table: 1881
epoch: 1000
next table: 1080
cur table: 1068
epoch: 1000
next table: 1780
cur table: 1906
epoch: 1000
next table: 1048
cur table: 1080
epoch: 1000
next table: 1813
cur table: 1780
epoch: 1000
next table: 1078
cur table: 1048
epoch: 1000
next table: 1655
cur table: 1813
epoch: 1000
next table: 1079
cur table: 1078
epoch: 1000
next table: 1819
cur table: 1655
epoch: 1000
next table: 1093
cur table: 1079
epoch: 1000
next table: 1874
cur table: 1819
epoch: 1000
next table: 1063
cur table: 1093
epoch: 1000
next table: 1966
cur table: 1874
epoch: 1000
next table: 1063
cur table: 1063
epoch: 1000
next table: 1829
cur table: 1966
epoch: 1000
next table: 1060
cur table: 1063
epoch: 1000
next table: 1825
cur table: 1829
epoch: 1000
next table: 1087
cur table: 1060
epoch: 1000
next table: 1770
cur table: 1825
epoch: 1000
next table: 1061
cur table: 1087
epoch: 1000
next table: 1796
cur table: 1770
epoch: 1000
next table: 1072
cur table: 1061
epoch: 1000
next table: 1851
cur table: 1796
epoch: 1000
next table: 1083
cur table: 1072
epoch: 1000
next table: 1892
cur table: 1851
epoch: 1000
next table: 1068
cur table: 1083
epoch: 1000
next table: 1860
cur table: 1892
epoch: 1000
next table: 1068
cur table: 1068
epoch: 1000
next table: 1856
cur table: 1860
epoch: 1000
next table: 1223
cur table: 1068
epoch: 1000
next table: 1909
cur table: 1856
epoch: 1000
next table: 1063
cur table: 1223
epoch: 1000
next table: 1652
cur table: 1909
epoch: 1000
next table: 1061
cur table: 1063
epoch: 1000
next table: 1842
cur table: 1652
epoch: 1000
next table: 1081
cur table: 1061
epoch: 1000
next table: 2000
cur table: 1842
epoch: 1000
next table: 1892
cur table: 2000
epoch: 1000
next table: 1063
cur table: 1081
epoch: 1000
next table: 1847
cur table: 1892
epoch: 1000
next table: 1061
cur table: 1063
epoch: 1000
next table: 1825
cur table: 1847
epoch: 1000
next table: 1066
cur table: 1061
epoch: 1000
next table: 1705
cur table: 1825
epoch: 1000
next table: 1059
cur table: 1066
epoch: 1000
next table: 1794
cur table: 1705
epoch: 1000
next table: 1064
cur table: 1059
epoch: 1000
next table: 1843
cur table: 1794
epoch: 1000
next table: 1069
cur table: 1064
epoch: 1000
next table: 1871
cur table: 1843
epoch: 1000
next table: 1064
cur table: 1069
epoch: 1000
next table: 2009
cur table: 1871
epoch: 1000
next table: 1067
cur table: 1064
epoch: 1000
next table: 1864
cur table: 2009
epoch: 1000
next table: 1076
cur table: 1067
epoch: 1000
next table: 1831
cur table: 1864
epoch: 1000
next table: 1054
cur table: 1076
epoch: 1000
next table: 1674
cur table: 1831
epoch: 1000
next table: 1081
cur table: 1054
epoch: 1000
next table: 1810
cur table: 1674
epoch: 1000
next table: 1064
cur table: 1081
epoch: 1000
next table: 1859
cur table: 1810
epoch: 1000
next table: 1076
cur table: 1064
epoch: 1000
next table: 1865
cur table: 1859
epoch: 1000
next table: 1068
cur table: 1076
epoch: 1000
next table: 1969
cur table: 1865
epoch: 1000
next table: 1080
cur table: 1068
epoch: 1000
next table: 1897
cur table: 1969
epoch: 1000
next table: 1217
cur table: 1080
epoch: 1000
next table: 1767
cur table: 1897
epoch: 1000
next table: 1062
cur table: 1217
epoch: 1000
next table: 1677
cur table: 1767
epoch: 1000
next table: 1071
cur table: 1062
epoch: 1000
next table: 1981
cur table: 1677
epoch: 1000
next table: 1072
cur table: 1071
epoch: 1000
next table: 1877
cur table: 1981
epoch: 1000
next table: 1061
cur table: 1072
epoch: 1000
next table: 1971
cur table: 1877
epoch: 1000
next table: 1071
cur table: 1061
epoch: 1000
next table: 1815
cur table: 1971
epoch: 1000
next table: 1058
cur table: 1071
epoch: 1000
next table: 1805
cur table: 1815
epoch: 1000
next table: 1070
cur table: 1058
epoch: 1000
next table: 1781
cur table: 1805
epoch: 1000
next table: 1111
cur table: 1070
epoch: 1000
next table: 1665
cur table: 1781
epoch: 1000
next table: 1065
cur table: 1111
epoch: 1000
next table: 1998
cur table: 1665
epoch: 1000
next table: 1098
cur table: 1065
epoch: 1000
next table: 1880
cur table: 1998
epoch: 1000
next table: 1060
cur table: 1098
epoch: 1000
next table: 1858
cur table: 1880
epoch: 1000
next table: 1086
cur table: 1060
epoch: 1000
next table: 1836
cur table: 1858
epoch: 1000
next table: 1061
cur table: 1086
epoch: 1000
next table: 1832
cur table: 1836
epoch: 1000
next table: 1095
cur table: 1061
epoch: 1000
next table: 1691
cur table: 1832
epoch: 1000
next table: 1087
cur table: 1095
epoch: 1000
next table: 1798
cur table: 1691
epoch: 1000
next table: 1094
cur table: 1087
epoch: 1000
next table: 1855
cur table: 1798
epoch: 1000
next table: 1066
cur table: 1094
epoch: 1000
next table: 1924
cur table: 1855
epoch: 1000
next table: 1076
cur table: 1066
epoch: 1000
next table: 1961
cur table: 1924
epoch: 1000
next table: 1124
cur table: 1076
epoch: 1000
next table: 1783
cur table: 1961
epoch: 1000
next table: 1154
cur table: 1124
epoch: 1000
next table: 1821
cur table: 1783
epoch: 1000
next table: 1083
cur table: 1154
epoch: 1000
next table: 1805
cur table: 1821
epoch: 1000
next table: 1072
cur table: 1083
epoch: 1000
next table: 1861
cur table: 1805
epoch: 1000
next table: 1068
cur table: 1072
epoch: 1000
next table: 1875
cur table: 1861
Heartbeat CPU 0 instructions: 20000000 cycles: 6421845 heartbeat IPC: 3.1144 cumulative IPC: 3.11437 (Simulation time: 0 hr 10 min 40 sec) 
epoch: 1000
next table: 1084
cur table: 1068
epoch: 1000
next table: 1859
cur table: 1875
epoch: 1000
next table: 1062
cur table: 1084
epoch: 1000
next table: 1850
cur table: 1859
epoch: 1000
next table: 1061
cur table: 1062
epoch: 1000
next table: 1823
cur table: 1850
epoch: 1000
next table: 1064
cur table: 1061
epoch: 1000
next table: 1812
cur table: 1823
epoch: 1000
next table: 1085
cur table: 1064
epoch: 1000
next table: 1684
cur table: 1812
epoch: 1000
next table: 1068
cur table: 1085
epoch: 1000
next table: 1858
cur table: 1684
epoch: 1000
next table: 1068
cur table: 1068
epoch: 1000
next table: 2014
cur table: 1858
epoch: 1000
next table: 1067
cur table: 1068
epoch: 1000
next table: 1863
cur table: 2014
epoch: 1000
next table: 1060
cur table: 1067
epoch: 1000
next table: 1853
cur table: 1863
epoch: 1000
next table: 1065
cur table: 1060
epoch: 1000
next table: 1831
cur table: 1853
epoch: 1000
next table: 1799
cur table: 1831
epoch: 1000
next table: 1065
cur table: 1065
epoch: 1000
next table: 1685
cur table: 1799
epoch: 1000
next table: 1064
cur table: 1065
epoch: 1000
next table: 1849
cur table: 1685
epoch: 1000
next table: 1068
cur table: 1064
epoch: 1000
next table: 2033
cur table: 1849
epoch: 1000
next table: 1089
cur table: 1068
epoch: 1000
next table: 1854
cur table: 2033
epoch: 1000
next table: 1064
cur table: 1089
epoch: 1000
next table: 1857
cur table: 1854
epoch: 1000
next table: 1204
cur table: 1064
epoch: 1000
next table: 1732
cur table: 1857
epoch: 1000
next table: 1057
cur table: 1204
epoch: 1000
next table: 1819
cur table: 1732
epoch: 1000
next table: 1072
cur table: 1057
epoch: 1000
next table: 1863
cur table: 1819
epoch: 1000
next table: 1079
cur table: 1072
epoch: 1000
next table: 1874
cur table: 1863
epoch: 1000
next table: 1062
cur table: 1079
epoch: 1000
next table: 1953
cur table: 1874
epoch: 1000
next table: 1066
cur table: 1062
epoch: 1000
next table: 1813
cur table: 1953
epoch: 1000
next table: 1058
cur table: 1066
epoch: 1000
next table: 1810
cur table: 1813
epoch: 1000
next table: 1069
cur table: 1058
epoch: 1000
next table: 1780
cur table: 1810
epoch: 1000
next table: 1055
cur table: 1069
epoch: 1000
next table: 1806
cur table: 1780
epoch: 1000
next table: 1076
cur table: 1055
epoch: 1000
next table: 1877
cur table: 1806
epoch: 1000
next table: 1069
cur table: 1076
epoch: 1000
next table: 1872
cur table: 1877
epoch: 1000
next table: 1080
cur table: 1069
epoch: 1000
next table: 1844
cur table: 1872
epoch: 1000
next table: 1062
cur table: 1080
epoch: 1000
next table: 1862
cur table: 1844
epoch: 1000
next table: 1066
cur table: 1062
epoch: 1000
next table: 1830
cur table: 1862
epoch: 1000
next table: 1061
cur table: 1066
epoch: 1000
next table: 1680
cur table: 1830
epoch: 1000
next table: 1075
cur table: 1061
epoch: 1000
next table: 1807
cur table: 1680
epoch: 1000
next table: 1073
cur table: 1075
epoch: 1000
next table: 2013
cur table: 1807
epoch: 1000
next table: 1065
cur table: 1073
epoch: 1000
next table: 1871
cur table: 2013
epoch: 1000
next table: 1065
cur table: 1065
epoch: 1000
next table: 1864
cur table: 1871
epoch: 1000
next table: 1235
cur table: 1065
epoch: 1000
next table: 1911
cur table: 1864
epoch: 1000
next table: 1065
cur table: 1235
epoch: 1000
next table: 1685
cur table: 1911
epoch: 1000
next table: 1060
cur table: 1065
epoch: 1000
next table: 1818
cur table: 1685
epoch: 1000
next table: 1072
cur table: 1060
epoch: 1000
next table: 1867
cur table: 1818
epoch: 1000
next table: 1065
cur table: 1072
epoch: 1000
next table: 2015
cur table: 1867
epoch: 1000
next table: 1066
cur table: 1065
epoch: 1000
next table: 1865
cur table: 2015
epoch: 1000
next table: 1063
cur table: 1066
epoch: 1000
next table: 1836
cur table: 1865
epoch: 1000
next table: 1064
cur table: 1063
epoch: 1000
next table: 1823
cur table: 1836
epoch: 1000
next table: 1123
cur table: 1064
epoch: 1000
next table: 1670
cur table: 1823
epoch: 1000
next table: 1087
cur table: 1123
epoch: 1000
next table: 1822
cur table: 1670
epoch: 1000
next table: 1067
cur table: 1087
epoch: 1000
next table: 1859
cur table: 1822
epoch: 1000
next table: 1082
cur table: 1067
epoch: 1000
next table: 1981
cur table: 1859
epoch: 1000
next table: 1061
cur table: 1082
epoch: 1000
next table: 1827
cur table: 1981
epoch: 1000
next table: 1068
cur table: 1061
epoch: 1000
next table: 1827
cur table: 1827
epoch: 1000
next table: 1079
cur table: 1068
epoch: 1000
next table: 1809
cur table: 1827
epoch: 1000
next table: 1092
cur table: 1079
epoch: 1000
next table: 1776
cur table: 1809
epoch: 1000
next table: 1060
cur table: 1092
epoch: 1000
next table: 1820
cur table: 1776
epoch: 1000
next table: 1066
cur table: 1060
epoch: 1000
next table: 1875
cur table: 1820
epoch: 1000
next table: 1077
cur table: 1066
epoch: 1000
next table: 1877
cur table: 1875
epoch: 1000
next table: 1154
cur table: 1077
epoch: 1000
next table: 1950
cur table: 1877
epoch: 1000
next table: 1127
cur table: 1154
epoch: 1000
next table: 1823
cur table: 1950
epoch: 1000
next table: 1085
cur table: 1127
epoch: 1000
next table: 1798
cur table: 1823
epoch: 1000
next table: 1066
cur table: 1085
epoch: 1000
next table: 1690
cur table: 1798
epoch: 1000
next table: 1067
cur table: 1066
epoch: 1000
next table: 2004
cur table: 1690
epoch: 1000
next table: 1074
cur table: 1067
epoch: 1000
next table: 1886
cur table: 2004
epoch: 1000
next table: 1068
cur table: 1074
epoch: 1000
next table: 1854
cur table: 1886
epoch: 1000
next table: 1068
cur table: 1068
epoch: 1000
next table: 1836
cur table: 1854
epoch: 1000
next table: 1059
cur table: 1068
epoch: 1000
next table: 1709
cur table: 1836
epoch: 1000
next table: 1066
cur table: 1059
epoch: 1000
next table: 1797
cur table: 1709
epoch: 1000
next table: 1827
cur table: 1797
epoch: 1000
next table: 1057
cur table: 1066
epoch: 1000
next table: 1864
cur table: 1827
epoch: 1000
next table: 1071
cur table: 1057
epoch: 1000
next table: 2012
cur table: 1864
epoch: 1000
next table: 1064
cur table: 1071
epoch: 1000
next table: 1861
cur table: 2012
epoch: 1000
next table: 1063
cur table: 1064
epoch: 1000
next table: 1850
cur table: 1861
epoch: 1000
next table: 1061
cur table: 1063
epoch: 1000
next table: 1813
cur table: 1850
epoch: 1000
next table: 1060
cur table: 1061
epoch: 1000
next table: 1668
cur table: 1813
epoch: 1000
next table: 1053
cur table: 1060
epoch: 1000
next table: 1850
cur table: 1668
epoch: 1000
next table: 1073
cur table: 1053
epoch: 1000
next table: 2002
cur table: 1850
epoch: 1000
next table: 1084
cur table: 1073
epoch: 1000
next table: 1882
cur table: 2002
epoch: 1000
next table: 1061
cur table: 1084
epoch: 1000
next table: 1912
cur table: 1882
epoch: 1000
next table: 1213
cur table: 1061
epoch: 1000
next table: 1692
cur table: 1912
epoch: 1000
next table: 1087
cur table: 1213
epoch: 1000
next table: 1807
cur table: 1692
epoch: 1000
next table: 1063
cur table: 1087
epoch: 1000
next table: 1844
cur table: 1807
epoch: 1000
next table: 1066
cur table: 1063
epoch: 1000
next table: 1877
cur table: 1844
epoch: 1000
next table: 1080
cur table: 1066
epoch: 1000
next table: 1857
cur table: 1877
epoch: 1000
next table: 1063
cur table: 1080
epoch: 1000
next table: 1846
cur table: 1857
epoch: 1000
next table: 1064
cur table: 1063
epoch: 1000
next table: 1813
cur table: 1846
epoch: 1000
next table: 1064
cur table: 1064
epoch: 1000
next table: 1693
cur table: 1813
epoch: 1000
next table: 1068
cur table: 1064
epoch: 1000
next table: 1780
cur table: 1693
epoch: 1000
next table: 1055
cur table: 1068
epoch: 1000
next table: 1694
cur table: 1780
epoch: 1000
next table: 1087
cur table: 1055
epoch: 1000
next table: 2006
cur table: 1694
epoch: 1000
next table: 1059
cur table: 1087
epoch: 1000
next table: 1865
cur table: 2006
epoch: 1000
next table: 1077
cur table: 1059
epoch: 1000
next table: 1935
cur table: 1865
epoch: 1000
next table: 1066
cur table: 1077
epoch: 1000
next table: 1824
cur table: 1935
epoch: 1000
next table: 1064
cur table: 1066
epoch: 1000
next table: 1770
cur table: 1824
epoch: 1000
next table: 1093
cur table: 1064
epoch: 1000
next table: 1808
cur table: 1770
epoch: 1000
next table: 1072
cur table: 1093
epoch: 1000
next table: 1680
cur table: 1808
epoch: 1000
next table: 1078
cur table: 1072
epoch: 1000
next table: 1993
cur table: 1680
epoch: 1000
next table: 1082
cur table: 1078
epoch: 1000
next table: 1886
cur table: 1993
epoch: 1000
next table: 1166
cur table: 1082
epoch: 1000
next table: 1923
cur table: 1886
epoch: 1000
next table: 1095
cur table: 1166
epoch: 1000
next table: 1693
cur table: 1923
epoch: 1000
next table: 1071
cur table: 1095
epoch: 1000
next table: 1803
cur table: 1693
epoch: 1000
next table: 1056
cur table: 1071
epoch: 1000
next table: 1834
cur table: 1803
epoch: 1000
next table: 1071
cur table: 1056
epoch: 1000
next table: 1872
cur table: 1834
epoch: 1000
next table: 1080
cur table: 1071
epoch: 1000
next table: 1984
cur table: 1872
epoch: 1000
next table: 1069
cur table: 1080
epoch: 1000
next table: 1823
cur table: 1984
epoch: 1000
next table: 1066
cur table: 1069
epoch: 1000
next table: 1813
cur table: 1823
epoch: 1000
next table: 1069
cur table: 1066
epoch: 1000
next table: 1791
cur table: 1813
epoch: 1000
next table: 1108
cur table: 1069
epoch: 1000
next table: 1798
cur table: 1791
epoch: 1000
next table: 1065
cur table: 1108
epoch: 1000
next table: 1824
cur table: 1798
epoch: 1000
next table: 1067
cur table: 1065
epoch: 1000
next table: 1879
cur table: 1824
epoch: 1000
next table: 1067
cur table: 1067
epoch: 1000
next table: 1858
cur table: 1879
epoch: 1000
next table: 1080
cur table: 1067
epoch: 1000
next table: 1851
cur table: 1858
epoch: 1000
next table: 1043
cur table: 1080
epoch: 1000
next table: 1823
cur table: 1851
epoch: 1000
next table: 1065
cur table: 1043
epoch: 1000
next table: 1710
cur table: 1823
epoch: 1000
next table: 1093
cur table: 1065
epoch: 1000
next table: 1787
cur table: 1710
epoch: 1000
next table: 1065
cur table: 1093
epoch: 1000
next table: 1830
cur table: 1787
epoch: 1000
next table: 1084
cur table: 1065
epoch: 1000
next table: 1868
cur table: 1830
epoch: 1000
next table: 1064
cur table: 1084
epoch: 1000
next table: 2030
cur table: 1868
epoch: 1000
next table: 1203
cur table: 1064
epoch: 1000
next table: 1830
cur table: 2030
epoch: 1000
next table: 1061
cur table: 1203
epoch: 1000
next table: 1768
cur table: 1830
epoch: 1000
next table: 1112
cur table: 1061
epoch: 1000
next table: 1808
cur table: 1768
epoch: 1000
next table: 1830
cur table: 1808
epoch: 1000
next table: 1066
cur table: 1112
epoch: 1000
next table: 1875
cur table: 1830
epoch: 1000
next table: 1077
cur table: 1066
epoch: 1000
next table: 1874
cur table: 1875
epoch: 1000
next table: 1069
cur table: 1077
epoch: 1000
next table: 1848
cur table: 1874
epoch: 1000
next table: 1067
cur table: 1069
epoch: 1000
next table: 1820
cur table: 1848
epoch: 1000
next table: 1075
cur table: 1067
epoch: 1000
next table: 1699
cur table: 1820
epoch: 1000
next table: 1056
cur table: 1075
epoch: 1000
next table: 1803
cur table: 1699
epoch: 1000
next table: 1088
cur table: 1056
epoch: 1000
next table: 1824
cur table: 1803
epoch: 1000
next table: 1061
cur table: 1088
epoch: 1000
next table: 1866
cur table: 1824
epoch: 1000
next table: 1065
cur table: 1061
epoch: 1000
next table: 1853
cur table: 1866
epoch: 1000
next table: 1088
cur table: 1065
epoch: 1000
next table: 2000
cur table: 1853
epoch: 1000
next table: 1059
cur table: 1088
epoch: 1000
next table: 1689
cur table: 2000
epoch: 1000
next table: 1069
cur table: 1059
epoch: 1000
next table: 1818
cur table: 1689
epoch: 1000
next table: 1066
cur table: 1069
epoch: 1000
next table: 1676
cur table: 1818
epoch: 1000
next table: 1062
cur table: 1066
epoch: 1000
next table: 1829
cur table: 1676
epoch: 1000
next table: 1069
cur table: 1062
epoch: 1000
next table: 2014
cur table: 1829
epoch: 1000
next table: 1073
cur table: 1069
epoch: 1000
next table: 1879
cur table: 2014
epoch: 1000
next table: 1218
cur table: 1073
epoch: 1000
next table: 1846
cur table: 1879
epoch: 1000
next table: 1062
cur table: 1218
epoch: 1000
next table: 1792
cur table: 1846
epoch: 1000
next table: 1062
cur table: 1062
epoch: 1000
next table: 1776
cur table: 1792
epoch: 1000
next table: 1051
cur table: 1062
epoch: 1000
next table: 1823
cur table: 1776
epoch: 1000
next table: 1088
cur table: 1051
epoch: 1000
next table: 1878
cur table: 1823
epoch: 1000
next table: 1069
cur table: 1088
epoch: 1000
next table: 1864
cur table: 1878
epoch: 1000
next table: 1065
cur table: 1069
epoch: 1000
next table: 2005
cur table: 1864
epoch: 1000
next table: 1068
cur table: 1065
epoch: 1000
next table: 1692
cur table: 2005
epoch: 1000
next table: 1065
cur table: 1068
epoch: 1000
next table: 1827
cur table: 1692
epoch: 1000
next table: 1065
cur table: 1065
epoch: 1000
next table: 1674
cur table: 1827
epoch: 1000
next table: 1059
cur table: 1065
epoch: 1000
next table: 1826
cur table: 1674
epoch: 1000
next table: 1080
cur table: 1059
epoch: 1000
next table: 2001
cur table: 1826
epoch: 1000
next table: 1064
cur table: 1080
epoch: 1000
next table: 1879
cur table: 2001
epoch: 1000
next table: 1063
cur table: 1064
epoch: 1000
next table: 1932
cur table: 1879
epoch: 1000
next table: 1068
cur table: 1063
epoch: 1000
next table: 1771
cur table: 1932
epoch: 1000
next table: 1066
cur table: 1068
epoch: 1000
next table: 1826
cur table: 1771
epoch: 1000
next table: 1094
cur table: 1066
epoch: 1000
next table: 1801
cur table: 1826
epoch: 1000
next table: 1077
cur table: 1094
epoch: 1000
next table: 1689
cur table: 1801
epoch: 1000
next table: 1083
cur table: 1077
epoch: 1000
next table: 1996
cur table: 1689
epoch: 1000
next table: 1064
cur table: 1083
epoch: 1000
next table: 1901
cur table: 1996
epoch: 1000
next table: 1223
cur table: 1064
epoch: 1000
next table: 1756
cur table: 1901
epoch: 1000
next table: 1824
cur table: 1756
epoch: 1000
next table: 1060
cur table: 1223
epoch: 1000
next table: 1805
cur table: 1824
epoch: 1000
next table: 1073
cur table: 1060
epoch: 1000
next table: 1685
cur table: 1805
epoch: 1000
next table: 1061
cur table: 1073
epoch: 1000
next table: 2024
cur table: 1685
epoch: 1000
next table: 1072
cur table: 1061
epoch: 1000
next table: 1864
cur table: 2024
Heartbeat CPU 0 instructions: 30000003 cycles: 9632683 heartbeat IPC: 3.11445 cumulative IPC: 3.1144 (Simulation time: 0 hr 16 min 9 sec) 
epoch: 1000
next table: 1129
cur table: 1072
epoch: 1000
next table: 1944
cur table: 1864
epoch: 1000
next table: 1147
cur table: 1129
epoch: 1000
next table: 1815
cur table: 1944
epoch: 1000
next table: 1067
cur table: 1147
epoch: 1000
next table: 1767
cur table: 1815
epoch: 1000
next table: 1086
cur table: 1067
epoch: 1000
next table: 1815
cur table: 1767
epoch: 1000
next table: 1102
cur table: 1086
epoch: 1000
next table: 1678
cur table: 1815
epoch: 1000
next table: 1087
cur table: 1102
epoch: 1000
next table: 2001
cur table: 1678
epoch: 1000
next table: 1072
cur table: 1087
epoch: 1000
next table: 1870
cur table: 2001
epoch: 1000
next table: 1070
cur table: 1072
epoch: 1000
next table: 1857
cur table: 1870
epoch: 1000
next table: 1064
cur table: 1070
epoch: 1000
next table: 1836
cur table: 1857
epoch: 1000
next table: 1059
cur table: 1064
epoch: 1000
next table: 1711
cur table: 1836
epoch: 1000
next table: 1089
cur table: 1059
epoch: 1000
next table: 1771
cur table: 1711
epoch: 1000
next table: 1062
cur table: 1089
epoch: 1000
next table: 1818
cur table: 1771
epoch: 1000
next table: 1071
cur table: 1062
epoch: 1000
next table: 1881
cur table: 1818
epoch: 1000
next table: 1146
cur table: 1071
epoch: 1000
next table: 1979
cur table: 1881
epoch: 1000
next table: 1124
cur table: 1146
epoch: 1000
next table: 1819
cur table: 1979
epoch: 1000
next table: 1090
cur table: 1124
epoch: 1000
next table: 1820
cur table: 1819
epoch: 1000
next table: 1112
cur table: 1090
epoch: 1000
next table: 1661
cur table: 1820
epoch: 1000
next table: 1069
cur table: 1112
epoch: 1000
next table: 1840
cur table: 1661
epoch: 1000
next table: 1067
cur table: 1069
epoch: 1000
next table: 1846
cur table: 1840
epoch: 1000
next table: 1980
cur table: 1846
epoch: 1000
next table: 1081
cur table: 1067
epoch: 1000
next table: 1835
cur table: 1980
epoch: 1000
next table: 1095
cur table: 1081
epoch: 1000
next table: 1810
cur table: 1835
epoch: 1000
next table: 1064
cur table: 1095
epoch: 1000
next table: 1798
cur table: 1810
epoch: 1000
next table: 1063
cur table: 1064
epoch: 1000
next table: 1789
cur table: 1798
epoch: 1000
next table: 1085
cur table: 1063
epoch: 1000
next table: 1818
cur table: 1789
epoch: 1000
next table: 1065
cur table: 1085
epoch: 1000
next table: 1873
cur table: 1818
epoch: 1000
next table: 1074
cur table: 1065
epoch: 1000
next table: 1862
cur table: 1873
epoch: 1000
next table: 1062
cur table: 1074
epoch: 1000
next table: 1849
cur table: 1862
epoch: 1000
next table: 1079
cur table: 1062
epoch: 1000
next table: 1852
cur table: 1849
epoch: 1000
next table: 1066
cur table: 1079
epoch: 1000
next table: 1823
cur table: 1852
epoch: 1000
next table: 1055
cur table: 1066
epoch: 1000
next table: 1670
cur table: 1823
epoch: 1000
next table: 1062
cur table: 1055
epoch: 1000
next table: 1834
cur table: 1670
epoch: 1000
next table: 1089
cur table: 1062
epoch: 1000
next table: 2006
cur table: 1834
epoch: 1000
next table: 1073
cur table: 1089
epoch: 1000
next table: 1829
cur table: 2006
epoch: 1000
next table: 1187
cur table: 1073
epoch: 1000
next table: 1883
cur table: 1829
epoch: 1000
next table: 1065
cur table: 1187
epoch: 1000
next table: 1769
cur table: 1883
epoch: 1000
next table: 1059
cur table: 1065
epoch: 1000
next table: 1817
cur table: 1769
epoch: 1000
next table: 1061
cur table: 1059
epoch: 1000
next table: 1822
cur table: 1817
epoch: 1000
next table: 1063
cur table: 1061
epoch: 1000
next table: 1859
cur table: 1822
epoch: 1000
next table: 1084
cur table: 1063
epoch: 1000
next table: 1875
cur table: 1859
epoch: 1000
next table: 1067
cur table: 1084
epoch: 1000
next table: 1866
cur table: 1875
epoch: 1000
next table: 1067
cur table: 1067
epoch: 1000
next table: 1837
cur table: 1866
epoch: 1000
next table: 1058
cur table: 1067
epoch: 1000
next table: 1818
cur table: 1837
epoch: 1000
next table: 1093
cur table: 1058
epoch: 1000
next table: 1680
cur table: 1818
epoch: 1000
next table: 1059
cur table: 1093
epoch: 1000
next table: 1826
cur table: 1680
epoch: 1000
next table: 1063
cur table: 1059
epoch: 1000
next table: 2001
cur table: 1826
epoch: 1000
next table: 1079
cur table: 1063
epoch: 1000
next table: 1877
cur table: 2001
epoch: 1000
next table: 1063
cur table: 1079
epoch: 1000
next table: 1854
cur table: 1877
epoch: 1000
next table: 1067
cur table: 1063
epoch: 1000
next table: 1854
cur table: 1854
epoch: 1000
next table: 1061
cur table: 1067
epoch: 1000
next table: 1819
cur table: 1854
epoch: 1000
next table: 1092
cur table: 1061
epoch: 1000
next table: 1665
cur table: 1819
epoch: 1000
next table: 1091
cur table: 1092
epoch: 1000
next table: 1832
cur table: 1665
epoch: 1000
next table: 1068
cur table: 1091
epoch: 1000
next table: 2003
cur table: 1832
epoch: 1000
next table: 1214
cur table: 1068
epoch: 1000
next table: 1884
cur table: 2003
epoch: 1000
next table: 1067
cur table: 1214
epoch: 1000
next table: 1778
cur table: 1884
epoch: 1000
next table: 1065
cur table: 1067
epoch: 1000
next table: 1826
cur table: 1778
epoch: 1000
next table: 1059
cur table: 1065
epoch: 1000
next table: 1680
cur table: 1826
epoch: 1000
next table: 1070
cur table: 1059
epoch: 1000
next table: 1819
cur table: 1680
epoch: 1000
next table: 1066
cur table: 1070
epoch: 1000
next table: 2008
cur table: 1819
epoch: 1000
next table: 1064
cur table: 1066
epoch: 1000
next table: 1876
cur table: 2008
epoch: 1000
next table: 1069
cur table: 1064
epoch: 1000
next table: 1946
cur table: 1876
epoch: 1000
next table: 1061
cur table: 1069
epoch: 1000
next table: 1813
cur table: 1946
epoch: 1000
next table: 1065
cur table: 1061
epoch: 1000
next table: 1766
cur table: 1813
epoch: 1000
next table: 1111
cur table: 1065
epoch: 1000
next table: 1815
cur table: 1766
epoch: 1000
next table: 1069
cur table: 1111
epoch: 1000
next table: 1832
cur table: 1815
epoch: 1000
next table: 1086
cur table: 1069
epoch: 1000
next table: 1879
cur table: 1832
epoch: 1000
next table: 1864
cur table: 1879
epoch: 1000
next table: 1065
cur table: 1086
epoch: 1000
next table: 1854
cur table: 1864
epoch: 1000
next table: 1063
cur table: 1065
epoch: 1000
next table: 1842
cur table: 1854
epoch: 1000
next table: 1062
cur table: 1063
epoch: 1000
next table: 1811
cur table: 1842
epoch: 1000
next table: 1057
cur table: 1062
epoch: 1000
next table: 1677
cur table: 1811
epoch: 1000
next table: 1081
cur table: 1057
epoch: 1000
next table: 1838
cur table: 1677
epoch: 1000
next table: 1071
cur table: 1081
epoch: 1000
next table: 2010
cur table: 1838
epoch: 1000
next table: 1066
cur table: 1071
epoch: 1000
next table: 1871
cur table: 2010
epoch: 1000
next table: 1217
cur table: 1066
epoch: 1000
next table: 1829
cur table: 1871
epoch: 1000
next table: 1061
cur table: 1217
epoch: 1000
next table: 1802
cur table: 1829
epoch: 1000
next table: 1091
cur table: 1061
epoch: 1000
next table: 1782
cur table: 1802
epoch: 1000
next table: 1089
cur table: 1091
epoch: 1000
next table: 1829
cur table: 1782
epoch: 1000
next table: 1070
cur table: 1089
epoch: 1000
next table: 1888
cur table: 1829
epoch: 1000
next table: 1062
cur table: 1070
epoch: 1000
next table: 1865
cur table: 1888
epoch: 1000
next table: 1075
cur table: 1062
epoch: 1000
next table: 1991
cur table: 1865
epoch: 1000
next table: 1066
cur table: 1075
epoch: 1000
next table: 1684
cur table: 1991
epoch: 1000
next table: 1061
cur table: 1066
epoch: 1000
next table: 1807
cur table: 1684
epoch: 1000
next table: 1048
cur table: 1061
epoch: 1000
next table: 1686
cur table: 1807
epoch: 1000
next table: 1066
cur table: 1048
epoch: 1000
next table: 1831
cur table: 1686
epoch: 1000
next table: 1077
cur table: 1066
epoch: 1000
next table: 2004
cur table: 1831
epoch: 1000
next table: 1076
cur table: 1077
epoch: 1000
next table: 1856
cur table: 2004
epoch: 1000
next table: 1077
cur table: 1076
epoch: 1000
next table: 1865
cur table: 1856
epoch: 1000
next table: 1067
cur table: 1077
epoch: 1000
next table: 1832
cur table: 1865
epoch: 1000
next table: 1067
cur table: 1067
epoch: 1000
next table: 1672
cur table: 1832
epoch: 1000
next table: 1059
cur table: 1067
epoch: 1000
next table: 1805
cur table: 1672
epoch: 1000
next table: 1064
cur table: 1059
epoch: 1000
next table: 1846
cur table: 1805
epoch: 1000
next table: 1073
cur table: 1064
epoch: 1000
next table: 1877
cur table: 1846
epoch: 1000
next table: 1216
cur table: 1073
epoch: 1000
next table: 1934
cur table: 1877
epoch: 1000
next table: 1060
cur table: 1216
epoch: 1000
next table: 1861
cur table: 1934
epoch: 1000
next table: 1065
cur table: 1060
epoch: 1000
next table: 1706
cur table: 1861
epoch: 1000
next table: 1055
cur table: 1065
epoch: 1000
next table: 1800
cur table: 1706
epoch: 1000
next table: 1062
cur table: 1055
epoch: 1000
next table: 1824
cur table: 1800
epoch: 1000
next table: 1069
cur table: 1062
epoch: 1000
next table: 1876
cur table: 1824
epoch: 1000
next table: 1070
cur table: 1069
epoch: 1000
next table: 2016
cur table: 1876
epoch: 1000
next table: 1085
cur table: 1070
epoch: 1000
next table: 1859
cur table: 2016
epoch: 1000
next table: 1061
cur table: 1085
epoch: 1000
next table: 1824
cur table: 1859
epoch: 1000
next table: 1065
cur table: 1061
epoch: 1000
next table: 1679
cur table: 1824
epoch: 1000
next table: 1053
cur table: 1065
epoch: 1000
next table: 1802
cur table: 1679
epoch: 1000
next table: 1067
cur table: 1053
epoch: 1000
next table: 1830
cur table: 1802
epoch: 1000
next table: 1080
cur table: 1067
epoch: 1000
next table: 1875
cur table: 1830
epoch: 1000
next table: 1069
cur table: 1080
epoch: 1000
next table: 1975
cur table: 1875
epoch: 1000
next table: 1060
cur table: 1069
epoch: 1000
next table: 1827
cur table: 1975
epoch: 1000
next table: 1063
cur table: 1060
epoch: 1000
next table: 1820
cur table: 1827
epoch: 1000
next table: 1061
cur table: 1063
epoch: 1000
next table: 1777
cur table: 1820
epoch: 1000
next table: 1071
cur table: 1061
epoch: 1000
next table: 1797
cur table: 1777
epoch: 1000
next table: 1063
cur table: 1071
epoch: 1000
next table: 1834
cur table: 1797
epoch: 1000
next table: 1069
cur table: 1063
epoch: 1000
next table: 1921
cur table: 1834
epoch: 1000
next table: 1221
cur table: 1069
epoch: 1000
next table: 1896
cur table: 1921
epoch: 1000
next table: 1065
cur table: 1221
epoch: 1000
next table: 1852
cur table: 1896
epoch: 1000
next table: 1062
cur table: 1065
epoch: 1000
next table: 1679
cur table: 1852
epoch: 1000
next table: 1063
cur table: 1062
epoch: 1000
next table: 1815
cur table: 1679
epoch: 1000
next table: 1058
cur table: 1063
epoch: 1000
next table: 1826
cur table: 1815
epoch: 1000
next table: 1068
cur table: 1058
epoch: 1000
next table: 1873
cur table: 1826
epoch: 1000
next table: 1980
cur table: 1873
epoch: 1000
next table: 1077
cur table: 1068
epoch: 1000
next table: 1818
cur table: 1980
epoch: 1000
next table: 1060
cur table: 1077
epoch: 1000
next table: 1815
cur table: 1818
epoch: 1000
next table: 1070
cur table: 1060
epoch: 1000
next table: 1762
cur table: 1815
epoch: 1000
next table: 1066
cur table: 1070
epoch: 1000
next table: 1820
cur table: 1762
epoch: 1000
next table: 1124
cur table: 1066
epoch: 1000
next table: 1683
cur table: 1820
epoch: 1000
next table: 1075
cur table: 1124
epoch: 1000
next table: 2020
cur table: 1683
epoch: 1000
next table: 1073
cur table: 1075
epoch: 1000
next table: 1868
cur table: 2020
epoch: 1000
next table: 1061
cur table: 1073
epoch: 1000
next table: 1852
cur table: 1868
epoch: 1000
next table: 1064
cur table: 1061
epoch: 1000
next table: 1847
cur table: 1852
epoch: 1000
next table: 1057
cur table: 1064
epoch: 1000
next table: 1808
cur table: 1847
epoch: 1000
next table: 1067
cur table: 1057
epoch: 1000
next table: 1684
cur table: 1808
epoch: 1000
next table: 1081
cur table: 1067
epoch: 1000
next table: 1837
cur table: 1684
epoch: 1000
next table: 1071
cur table: 1081
epoch: 1000
next table: 1999
cur table: 1837
epoch: 1000
next table: 1214
cur table: 1071
epoch: 1000
next table: 1883
cur table: 1999
epoch: 1000
next table: 1067
cur table: 1214
epoch: 1000
next table: 1830
cur table: 1883
epoch: 1000
next table: 1058
cur table: 1067
epoch: 1000
next table: 1768
cur table: 1830
epoch: 1000
next table: 1087
cur table: 1058
epoch: 1000
next table: 1810
cur table: 1768
epoch: 1000
next table: 1083
cur table: 1087
epoch: 1000
next table: 1834
cur table: 1810
epoch: 1000
next table: 1064
cur table: 1083
epoch: 1000
next table: 1880
cur table: 1834
epoch: 1000
next table: 1079
cur table: 1064
epoch: 1000
next table: 1871
cur table: 1880
epoch: 1000
next table: 1073
cur table: 1079
epoch: 1000
next table: 1848
cur table: 1871
epoch: 1000
next table: 1064
cur table: 1073
epoch: 1000
next table: 1839
cur table: 1848
epoch: 1000
next table: 1065
cur table: 1064
epoch: 1000
next table: 1822
cur table: 1839
epoch: 1000
next table: 1060
cur table: 1065
epoch: 1000
next table: 1679
cur table: 1822
epoch: 1000
next table: 1061
cur table: 1060
epoch: 1000
next table: 1833
cur table: 1679
epoch: 1000
next table: 1069
cur table: 1061
epoch: 1000
next table: 2010
cur table: 1833
epoch: 1000
next table: 1061
cur table: 1069
epoch: 1000
next table: 1870
cur table: 2010
epoch: 1000
next table: 1068
cur table: 1061
epoch: 1000
next table: 1923
cur table: 1870
epoch: 1000
next table: 1072
cur table: 1068
epoch: 1000
next table: 1774
cur table: 1923
epoch: 1000
next table: 1056
cur table: 1072
epoch: 1000
next table: 1827
cur table: 1774
epoch: 1000
next table: 1054
cur table: 1056
epoch: 1000
next table: 1661
cur table: 1827
epoch: 1000
next table: 1064
cur table: 1054
epoch: 1000
next table: 1842
cur table: 1661
epoch: 1000
next table: 1133
cur table: 1064
epoch: 1000
next table: 1913
cur table: 1842
epoch: 1000
next table: 1145
cur table: 1133
epoch: 1000
next table: 1894
cur table: 1913
epoch: 1000
next table: 1060
cur table: 1145
epoch: 1000
next table: 1858
cur table: 1894
epoch: 1000
next table: 1068
cur table: 1060
epoch: 1000
next table: 1817
cur table: 1858
epoch: 1000
next table: 1056
cur table: 1068
epoch: 1000
next table: 1684
cur table: 1817
epoch: 1000
next table: 1063
cur table: 1056
epoch: 1000
next table: 1826
cur table: 1684
epoch: 1000
next table: 1066
cur table: 1063
epoch: 1000
next table: 2019
cur table: 1826
epoch: 1000
next table: 1081
cur table: 1066
epoch: 1000
next table: 1867
cur table: 2019
Heartbeat CPU 0 instructions: 40000001 cycles: 12843406 heartbeat IPC: 3.11456 cumulative IPC: 3.11444 (Simulation time: 0 hr 22 min 35 sec) 
epoch: 1000
next table: 1065
cur table: 1081
epoch: 1000
next table: 1854
cur table: 1867
epoch: 1000
next table: 1062
cur table: 1065
epoch: 1000
next table: 1835
cur table: 1854
epoch: 1000
next table: 1066
cur table: 1062
epoch: 1000
next table: 1816
cur table: 1835
epoch: 1000
next table: 1061
cur table: 1066
epoch: 1000
next table: 1667
cur table: 1816
epoch: 1000
next table: 1062
cur table: 1061
epoch: 1000
next table: 1836
cur table: 1667
epoch: 1000
next table: 1067
cur table: 1062
epoch: 1000
next table: 1856
cur table: 1836
epoch: 1000
next table: 1066
cur table: 1067
epoch: 1000
next table: 2021
cur table: 1856
epoch: 1000
next table: 1062
cur table: 1066
epoch: 1000
next table: 1763
cur table: 2021
epoch: 1000
next table: 1073
cur table: 1062
epoch: 1000
next table: 1759
cur table: 1763
epoch: 1000
next table: 1056
cur table: 1073
epoch: 1000
next table: 1820
cur table: 1759
epoch: 1000
next table: 1093
cur table: 1056
epoch: 1000
next table: 1664
cur table: 1820
epoch: 1000
next table: 1064
cur table: 1093
epoch: 1000
next table: 1821
cur table: 1664
epoch: 1000
next table: 1231
cur table: 1064
epoch: 1000
next table: 1902
cur table: 1821
epoch: 1000
next table: 1065
cur table: 1231
epoch: 1000
next table: 1879
cur table: 1902
epoch: 1000
next table: 1068
cur table: 1065
epoch: 1000
next table: 1853
cur table: 1879
epoch: 1000
next table: 1710
cur table: 1853
epoch: 1000
next table: 1066
cur table: 1068
epoch: 1000
next table: 1782
cur table: 1710
epoch: 1000
next table: 1054
cur table: 1066
epoch: 1000
next table: 1800
cur table: 1782
epoch: 1000
next table: 1067
cur table: 1054
epoch: 1000
next table: 1873
cur table: 1800
epoch: 1000
next table: 1077
cur table: 1067
epoch: 1000
next table: 1872
cur table: 1873
epoch: 1000
next table: 1069
cur table: 1077
epoch: 1000
next table: 1861
cur table: 1872
epoch: 1000
next table: 1062
cur table: 1069
epoch: 1000
next table: 1839
cur table: 1861
epoch: 1000
next table: 1063
cur table: 1062
epoch: 1000
next table: 1827
cur table: 1839
epoch: 1000
next table: 1065
cur table: 1063
epoch: 1000
next table: 1682
cur table: 1827
epoch: 1000
next table: 1107
cur table: 1065
epoch: 1000
next table: 1817
cur table: 1682
epoch: 1000
next table: 1071
cur table: 1107
epoch: 1000
next table: 1850
cur table: 1817
epoch: 1000
next table: 1062
cur table: 1071
epoch: 1000
next table: 2001
cur table: 1850
epoch: 1000
next table: 1079
cur table: 1062
epoch: 1000
next table: 1847
cur table: 2001
epoch: 1000
next table: 1071
cur table: 1079
epoch: 1000
next table: 1696
cur table: 1847
epoch: 1000
next table: 1058
cur table: 1071
epoch: 1000
next table: 1813
cur table: 1696
epoch: 1000
next table: 1078
cur table: 1058
epoch: 1000
next table: 1688
cur table: 1813
epoch: 1000
next table: 1114
cur table: 1078
epoch: 1000
next table: 1809
cur table: 1688
epoch: 1000
next table: 1067
cur table: 1114
epoch: 1000
next table: 1939
cur table: 1809
epoch: 1000
next table: 1221
cur table: 1067
epoch: 1000
next table: 1806
cur table: 1939
epoch: 1000
next table: 1088
cur table: 1221
epoch: 1000
next table: 1866
cur table: 1806
epoch: 1000
next table: 1077
cur table: 1088
epoch: 1000
next table: 1833
cur table: 1866
epoch: 1000
next table: 1064
cur table: 1077
epoch: 1000
next table: 1689
cur table: 1833
epoch: 1000
next table: 1080
cur table: 1064
epoch: 1000
next table: 1798
cur table: 1689
epoch: 1000
next table: 1069
cur table: 1080
epoch: 1000
next table: 1853
cur table: 1798
epoch: 1000
next table: 1066
cur table: 1069
epoch: 1000
next table: 1868
cur table: 1853
epoch: 1000
next table: 1076
cur table: 1066
epoch: 1000
next table: 1970
cur table: 1868
epoch: 1000
next table: 1071
cur table: 1076
epoch: 1000
next table: 1829
cur table: 1970
epoch: 1000
next table: 1076
cur table: 1071
epoch: 1000
next table: 1804
cur table: 1829
epoch: 1000
next table: 1063
cur table: 1076
epoch: 1000
next table: 1777
cur table: 1804
epoch: 1000
next table: 1085
cur table: 1063
epoch: 1000
next table: 1812
cur table: 1777
epoch: 1000
next table: 1061
cur table: 1085
epoch: 1000
next table: 1847
cur table: 1812
epoch: 1000
next table: 1068
cur table: 1061
epoch: 1000
next table: 1876
cur table: 1847
epoch: 1000
next table: 1062
cur table: 1068
epoch: 1000
next table: 1858
cur table: 1876
epoch: 1000
next table: 1068
cur table: 1062
epoch: 1000
next table: 1854
cur table: 1858
epoch: 1000
next table: 1059
cur table: 1068
epoch: 1000
next table: 1841
cur table: 1854
epoch: 1000
next table: 1066
cur table: 1059
epoch: 1000
next table: 1809
cur table: 1841
epoch: 1000
next table: 1058
cur table: 1066
epoch: 1000
next table: 1685
cur table: 1809
epoch: 1000
next table: 1068
cur table: 1058
epoch: 1000
next table: 1978
cur table: 1685
epoch: 1000
next table: 1241
cur table: 1068
epoch: 1000
next table: 1798
cur table: 1978
epoch: 1000
next table: 1933
cur table: 1798
epoch: 1000
next table: 1080
cur table: 1241
epoch: 1000
next table: 1818
cur table: 1933
epoch: 1000
next table: 1065
cur table: 1080
epoch: 1000
next table: 1785
cur table: 1818
epoch: 1000
next table: 1085
cur table: 1065
epoch: 1000
next table: 1664
cur table: 1785
epoch: 1000
next table: 1063
cur table: 1085
epoch: 1000
next table: 1989
cur table: 1664
epoch: 1000
next table: 1066
cur table: 1063
epoch: 1000
next table: 1883
cur table: 1989
epoch: 1000
next table: 1063
cur table: 1066
epoch: 1000
next table: 1875
cur table: 1883
epoch: 1000
next table: 1063
cur table: 1063
epoch: 1000
next table: 1845
cur table: 1875
epoch: 1000
next table: 1068
cur table: 1063
epoch: 1000
next table: 1823
cur table: 1845
epoch: 1000
next table: 1060
cur table: 1068
epoch: 1000
next table: 1705
cur table: 1823
epoch: 1000
next table: 1060
cur table: 1060
epoch: 1000
next table: 1799
cur table: 1705
epoch: 1000
next table: 1058
cur table: 1060
epoch: 1000
next table: 1844
cur table: 1799
epoch: 1000
next table: 1079
cur table: 1058
epoch: 1000
next table: 2015
cur table: 1844
epoch: 1000
next table: 1070
cur table: 1079
epoch: 1000
next table: 1860
cur table: 2015
epoch: 1000
next table: 1064
cur table: 1070
epoch: 1000
next table: 1856
cur table: 1860
epoch: 1000
next table: 1070
cur table: 1064
epoch: 1000
next table: 1837
cur table: 1856
epoch: 1000
next table: 1059
cur table: 1070
epoch: 1000
next table: 1655
cur table: 1837
epoch: 1000
next table: 1098
cur table: 1059
epoch: 1000
next table: 1826
cur table: 1655
epoch: 1000
next table: 1066
cur table: 1098
epoch: 1000
next table: 1884
cur table: 1826
epoch: 1000
next table: 1233
cur table: 1066
epoch: 1000
next table: 1894
cur table: 1884
epoch: 1000
next table: 1059
cur table: 1233
epoch: 1000
next table: 1863
cur table: 1894
epoch: 1000
next table: 1068
cur table: 1059
epoch: 1000
next table: 1827
cur table: 1863
epoch: 1000
next table: 1056
cur table: 1068
epoch: 1000
next table: 1710
cur table: 1827
epoch: 1000
next table: 1071
cur table: 1056
epoch: 1000
next table: 1793
cur table: 1710
epoch: 1000
next table: 1058
cur table: 1071
epoch: 1000
next table: 1833
cur table: 1793
epoch: 1000
next table: 1065
cur table: 1058
epoch: 1000
next table: 1871
cur table: 1833
epoch: 1000
next table: 1058
cur table: 1065
epoch: 1000
next table: 2027
cur table: 1871
epoch: 1000
next table: 1069
cur table: 1058
epoch: 1000
next table: 1843
cur table: 2027
epoch: 1000
next table: 1054
cur table: 1069
epoch: 1000
next table: 1832
cur table: 1843
epoch: 1000
next table: 1067
cur table: 1054
epoch: 1000
next table: 1670
cur table: 1832
epoch: 1000
next table: 1111
cur table: 1067
epoch: 1000
next table: 1684
cur table: 1670
epoch: 1000
next table: 1068
cur table: 1111
epoch: 1000
next table: 1976
cur table: 1684
epoch: 1000
next table: 1082
cur table: 1068
epoch: 1000
next table: 1876
cur table: 1976
epoch: 1000
next table: 1065
cur table: 1082
epoch: 1000
next table: 1955
cur table: 1876
epoch: 1000
next table: 1064
cur table: 1065
epoch: 1000
next table: 1830
cur table: 1955
epoch: 1000
next table: 1061
cur table: 1064
epoch: 1000
next table: 1818
cur table: 1830
epoch: 1000
next table: 1091
cur table: 1061
epoch: 1000
next table: 1778
cur table: 1818
epoch: 1000
next table: 1105
cur table: 1091
epoch: 1000
next table: 1804
cur table: 1778
epoch: 1000
next table: 1206
cur table: 1105
epoch: 1000
next table: 1749
cur table: 1804
epoch: 1000
next table: 1084
cur table: 1206
epoch: 1000
next table: 1891
cur table: 1749
epoch: 1000
next table: 1073
cur table: 1084
epoch: 1000
next table: 2004
cur table: 1891
epoch: 1000
next table: 1057
cur table: 1073
epoch: 1000
next table: 1698
cur table: 2004
epoch: 1000
next table: 1065
cur table: 1057
epoch: 1000
next table: 1820
cur table: 1698
epoch: 1000
next table: 1066
cur table: 1065
epoch: 1000
next table: 1668
cur table: 1820
epoch: 1000
next table: 1082
cur table: 1066
epoch: 1000
next table: 1836
cur table: 1668
epoch: 1000
next table: 1066
cur table: 1082
epoch: 1000
next table: 2021
cur table: 1836
epoch: 1000
next table: 1065
cur table: 1066
epoch: 1000
next table: 1867
cur table: 2021
epoch: 1000
next table: 1064
cur table: 1065
epoch: 1000
next table: 1848
cur table: 1867
epoch: 1000
next table: 1061
cur table: 1064
epoch: 1000
next table: 1829
cur table: 1848
epoch: 1000
next table: 1065
cur table: 1061
epoch: 1000
next table: 1815
cur table: 1829
epoch: 1000
next table: 1079
cur table: 1065
epoch: 1000
next table: 1668
cur table: 1815
epoch: 1000
next table: 1060
cur table: 1079
epoch: 1000
next table: 1838
cur table: 1668
epoch: 1000
next table: 1992
cur table: 1838
epoch: 1000
next table: 1078
cur table: 1060
epoch: 1000
next table: 1892
cur table: 1992
epoch: 1000
next table: 1069
cur table: 1078
epoch: 1000
next table: 1857
cur table: 1892
epoch: 1000
next table: 1059
cur table: 1069
epoch: 1000
next table: 1798
cur table: 1857
epoch: 1000
next table: 1081
cur table: 1059
epoch: 1000
next table: 1727
cur table: 1798
epoch: 1000
next table: 1067
cur table: 1081
epoch: 1000
next table: 1780
cur table: 1727
epoch: 1000
next table: 1067
cur table: 1067
epoch: 1000
next table: 1742
cur table: 1780
epoch: 1000
next table: 1221
cur table: 1067
epoch: 1000
next table: 1898
cur table: 1742
epoch: 1000
next table: 1070
cur table: 1221
epoch: 1000
next table: 1996
cur table: 1898
epoch: 1000
next table: 1063
cur table: 1070
epoch: 1000
next table: 1717
cur table: 1996
epoch: 1000
next table: 1066
cur table: 1063
epoch: 1000
next table: 1810
cur table: 1717
epoch: 1000
next table: 1061
cur table: 1066
epoch: 1000
next table: 1672
cur table: 1810
epoch: 1000
next table: 1073
cur table: 1061
epoch: 1000
next table: 1826
cur table: 1672
epoch: 1000
next table: 1065
cur table: 1073
epoch: 1000
next table: 2009
cur table: 1826
epoch: 1000
next table: 1090
cur table: 1065
epoch: 1000
next table: 1874
cur table: 2009
epoch: 1000
next table: 1060
cur table: 1090
epoch: 1000
next table: 1854
cur table: 1874
epoch: 1000
next table: 1065
cur table: 1060
epoch: 1000
next table: 1831
cur table: 1854
epoch: 1000
next table: 1060
cur table: 1065
epoch: 1000
next table: 1819
cur table: 1831
epoch: 1000
next table: 1062
cur table: 1060
epoch: 1000
next table: 1667
cur table: 1819
epoch: 1000
next table: 1060
cur table: 1062
epoch: 1000
next table: 1829
cur table: 1667
epoch: 1000
next table: 1064
cur table: 1060
epoch: 1000
next table: 1865
cur table: 1829
epoch: 1000
next table: 1069
cur table: 1064
epoch: 1000
next table: 1970
cur table: 1865
epoch: 1000
next table: 1078
cur table: 1069
epoch: 1000
next table: 1904
cur table: 1970
epoch: 1000
next table: 1072
cur table: 1078
epoch: 1000
next table: 1741
cur table: 1904
epoch: 1000
next table: 1061
cur table: 1072
epoch: 1000
next table: 1800
cur table: 1741
epoch: 1000
next table: 1077
cur table: 1061
epoch: 1000
next table: 1784
cur table: 1800
epoch: 1000
next table: 1067
cur table: 1077
epoch: 1000
next table: 1731
cur table: 1784
epoch: 1000
next table: 1238
cur table: 1067
epoch: 1000
next table: 1903
cur table: 1731
epoch: 1000
next table: 1066
cur table: 1238
epoch: 1000
next table: 1991
cur table: 1903
epoch: 1000
next table: 1065
cur table: 1066
epoch: 1000
next table: 1861
cur table: 1991
epoch: 1000
next table: 1060
cur table: 1065
epoch: 1000
next table: 1678
cur table: 1861
epoch: 1000
next table: 1062
cur table: 1060
epoch: 1000
next table: 1809
cur table: 1678
epoch: 1000
next table: 1066
cur table: 1062
epoch: 1000
next table: 1682
cur table: 1809
epoch: 1000
next table: 1063
cur table: 1066
epoch: 1000
next table: 2014
cur table: 1682
epoch: 1000
next table: 1076
cur table: 1063
epoch: 1000
next table: 1867
cur table: 2014
epoch: 1000
next table: 1069
cur table: 1076
epoch: 1000
next table: 1948
cur table: 1867
epoch: 1000
next table: 1057
cur table: 1069
epoch: 1000
next table: 1819
cur table: 1948
epoch: 1000
next table: 1066
cur table: 1057
epoch: 1000
next table: 1765
cur table: 1819
epoch: 1000
next table: 1108
cur table: 1066
epoch: 1000
next table: 1818
cur table: 1765
epoch: 1000
next table: 1070
cur table: 1108
epoch: 1000
next table: 1685
cur table: 1818
epoch: 1000
next table: 1071
cur table: 1070
epoch: 1000
next table: 2018
cur table: 1685
epoch: 1000
next table: 1079
cur table: 1071
epoch: 1000
next table: 1868
cur table: 2018
epoch: 1000
next table: 1068
cur table: 1079
epoch: 1000
next table: 1858
cur table: 1868
epoch: 1000
next table: 1061
cur table: 1068
epoch: 1000
next table: 1842
cur table: 1858
epoch: 1000
next table: 1067
cur table: 1061
epoch: 1000
next table: 1817
cur table: 1842
epoch: 1000
next table: 1094
cur table: 1067
epoch: 1000
next table: 1674
cur table: 1817
epoch: 1000
next table: 1236
cur table: 1094
epoch: 1000
next table: 1872
cur table: 1674
epoch: 1000
next table: 1070
cur table: 1236
epoch: 1000
next table: 1889
cur table: 1872
epoch: 1000
next table: 1069
cur table: 1070
epoch: 1000
next table: 1853
cur table: 1889
epoch: 1000
next table: 1059
cur table: 1069
epoch: 1000
next table: 1855
cur table: 1853
epoch: 1000
next table: 1838
cur table: 1855
epoch: 1000
next table: 1082
cur table: 1059
epoch: 1000
next table: 1650
cur table: 1838
epoch: 1000
next table: 1102
cur table: 1082
epoch: 1000
next table: 1833
cur table: 1650
epoch: 1000
next table: 1062
cur table: 1102
epoch: 1000
next table: 1993
cur table: 1833
epoch: 1000
next table: 1086
cur table: 1062
epoch: 1000
next table: 1897
cur table: 1993
epoch: 1000
next table: 1075
cur table: 1086
epoch: 1000
next table: 1850
cur table: 1897
Heartbeat CPU 0 instructions: 50000001 cycles: 16053932 heartbeat IPC: 3.11475 cumulative IPC: 3.1145 (Simulation time: 0 hr 27 min 50 sec) 

Warmup complete CPU 0 instructions: 50000001 cycles: 16053932 (Simulation time: 0 hr 27 min 50 sec) 

epoch: 1000
next table: 1815
cur table: 1841
epoch: 1000
next table: 1054
cur table: 1088
epoch: 1000
next table: 1679
cur table: 1815
epoch: 1000
next table: 1066
cur table: 1054
epoch: 1000
next table: 1832
cur table: 1679
epoch: 1000
next table: 1066
cur table: 1066
epoch: 1000
next table: 2010
cur table: 1832
epoch: 1000
next table: 1076
cur table: 1066
epoch: 1000
next table: 1864
cur table: 2010
epoch: 1000
next table: 1075
cur table: 1076
epoch: 1000
next table: 1863
cur table: 1864
epoch: 1000
next table: 1064
cur table: 1075
epoch: 1000
next table: 1847
cur table: 1863
epoch: 1000
next table: 1062
cur table: 1064
epoch: 1000
next table: 1823
cur table: 1847
epoch: 1000
next table: 1057
cur table: 1062
epoch: 1000
next table: 1663
cur table: 1823
epoch: 1000
next table: 1060
cur table: 1057
epoch: 1000
next table: 1916
cur table: 1663
epoch: 1000
next table: 1242
cur table: 1060
epoch: 1000
next table: 1873
cur table: 1916
epoch: 1000
next table: 1073
cur table: 1242
epoch: 1000
next table: 1852
cur table: 1873
epoch: 1000
next table: 1064
cur table: 1073
epoch: 1000
next table: 1853
cur table: 1852
epoch: 1000
next table: 1064
cur table: 1064
epoch: 1000
next table: 1812
cur table: 1853
epoch: 1000
next table: 1058
cur table: 1064
epoch: 1000
next table: 1677
cur table: 1812
epoch: 1000
next table: 1060
cur table: 1058
epoch: 1000
next table: 1840
cur table: 1677
epoch: 1000
next table: 1074
cur table: 1060
epoch: 1000
next table: 2008
cur table: 1840
epoch: 1000
next table: 1079
cur table: 1074
epoch: 1000
next table: 1867
cur table: 2008
epoch: 1000
next table: 1068
cur table: 1079
epoch: 1000
next table: 1862
cur table: 1867
epoch: 1000
next table: 1068
cur table: 1068
epoch: 1000
next table: 1830
cur table: 1862
epoch: 1000
next table: 1058
cur table: 1068
epoch: 1000
next table: 1819
cur table: 1830
epoch: 1000
next table: 1083
cur table: 1058
epoch: 1000
next table: 1667
cur table: 1819
epoch: 1000
next table: 1057
cur table: 1083
epoch: 1000
next table: 1824
cur table: 1667
epoch: 1000
next table: 1071
cur table: 1057
epoch: 1000
next table: 1869
cur table: 1824
epoch: 1000
next table: 1065
cur table: 1071
epoch: 1000
next table: 1966
cur table: 1869
epoch: 1000
next table: 1075
cur table: 1065
epoch: 1000
next table: 1909
cur table: 1966
epoch: 1000
next table: 1068
cur table: 1075
epoch: 1000
next table: 1733
cur table: 1909
epoch: 1000
next table: 1060
cur table: 1068
epoch: 1000
next table: 1803
cur table: 1733
epoch: 1000
next table: 1082
cur table: 1060
epoch: 1000
next table: 1802
cur table: 1803
epoch: 1000
next table: 1252
cur table: 1082
epoch: 1000
next table: 1766
cur table: 1802
epoch: 1000
next table: 1077
cur table: 1252
epoch: 1000
next table: 2010
cur table: 1766
epoch: 1000
next table: 1067
cur table: 1077
epoch: 1000
next table: 1860
cur table: 2010
epoch: 1000
next table: 1067
cur table: 1067
epoch: 1000
next table: 1844
cur table: 1860
epoch: 1000
next table: 1062
cur table: 1067
epoch: 1000
next table: 1674
cur table: 1844
epoch: 1000
next table: 1064
cur table: 1062
epoch: 1000
next table: 1792
cur table: 1674
epoch: 1000
next table: 1065
cur table: 1064
epoch: 1000
next table: 1698
cur table: 1792
epoch: 1000
next table: 1069
cur table: 1065
epoch: 1000
next table: 1992
cur table: 1698
epoch: 1000
next table: 1095
cur table: 1069
epoch: 1000
next table: 1873
cur table: 1992
epoch: 1000
next table: 1083
cur table: 1095
epoch: 1000
next table: 1850
cur table: 1873
epoch: 1000
next table: 1063
cur table: 1083
epoch: 1000
next table: 1830
cur table: 1850
epoch: 1000
next table: 1094
cur table: 1063
epoch: 1000
next table: 1818
cur table: 1830
epoch: 1000
next table: 1103
cur table: 1094
epoch: 1000
next table: 1668
cur table: 1818
epoch: 1000
next table: 1101
cur table: 1103
epoch: 1000
next table: 1824
cur table: 1668
epoch: 1000
next table: 1115
cur table: 1101
epoch: 1000
next table: 1856
cur table: 1824
epoch: 1000
next table: 1100
cur table: 1115
epoch: 1000
next table: 1868
cur table: 1856
epoch: 1000
next table: 1064
cur table: 1100
epoch: 1000
next table: 1921
cur table: 1868
epoch: 1000
next table: 1062
cur table: 1064
epoch: 1000
next table: 1828
cur table: 1921
epoch: 1000
next table: 1059
cur table: 1062
epoch: 1000
next table: 1777
cur table: 1828
epoch: 1000
next table: 1109
cur table: 1059
epoch: 1000
next table: 1813
cur table: 1777
epoch: 1000
next table: 1214
cur table: 1109
epoch: 1000
next table: 1764
cur table: 1813
epoch: 1000
next table: 1065
cur table: 1214
epoch: 1000
next table: 1864
cur table: 1764
epoch: 1000
next table: 1072
cur table: 1065
epoch: 1000
next table: 2005
cur table: 1864
epoch: 1000
next table: 1857
cur table: 2005
epoch: 1000
next table: 1071
cur table: 1072
epoch: 1000
next table: 1685
cur table: 1857
epoch: 1000
next table: 1063
cur table: 1071
epoch: 1000
next table: 1805
cur table: 1685
epoch: 1000
next table: 1081
cur table: 1063
epoch: 1000
next table: 1826
cur table: 1805
epoch: 1000
next table: 1067
cur table: 1081
epoch: 1000
next table: 1870
cur table: 1826
epoch: 1000
next table: 1066
cur table: 1067
epoch: 1000
next table: 1977
cur table: 1870
epoch: 1000
next table: 1077
cur table: 1066
epoch: 1000
next table: 1825
cur table: 1977
epoch: 1000
next table: 1064
cur table: 1077
epoch: 1000
next table: 1816
cur table: 1825
epoch: 1000
next table: 1068
cur table: 1064
epoch: 1000
next table: 1805
cur table: 1816
epoch: 1000
next table: 1058
cur table: 1068
epoch: 1000
next table: 1800
cur table: 1805
epoch: 1000
next table: 1088
cur table: 1058
epoch: 1000
next table: 1814
cur table: 1800
epoch: 1000
next table: 1067
cur table: 1088
epoch: 1000
next table: 1871
cur table: 1814
epoch: 1000
next table: 1076
cur table: 1067
epoch: 1000
next table: 1862
cur table: 1871
epoch: 1000
next table: 1070
cur table: 1076
epoch: 1000
next table: 1857
cur table: 1862
epoch: 1000
next table: 1072
cur table: 1070
epoch: 1000
next table: 1845
cur table: 1857
epoch: 1000
next table: 1062
cur table: 1072
epoch: 1000
next table: 1826
cur table: 1845
epoch: 1000
next table: 1056
cur table: 1062
epoch: 1000
next table: 1763
cur table: 1826
epoch: 1000
next table: 1197
cur table: 1056
epoch: 1000
next table: 1818
cur table: 1763
epoch: 1000
next table: 1079
cur table: 1197
epoch: 1000
next table: 1974
cur table: 1818
epoch: 1000
next table: 1069
cur table: 1079
epoch: 1000
next table: 1823
cur table: 1974
epoch: 1000
next table: 1064
cur table: 1069
epoch: 1000
next table: 1825
cur table: 1823
epoch: 1000
next table: 1066
cur table: 1064
epoch: 1000
next table: 1811
cur table: 1825
epoch: 1000
next table: 1078
cur table: 1066
epoch: 1000
next table: 1794
cur table: 1811
epoch: 1000
next table: 1064
cur table: 1078
epoch: 1000
next table: 1825
cur table: 1794
epoch: 1000
next table: 1078
cur table: 1064
epoch: 1000
next table: 1890
cur table: 1825
epoch: 1000
next table: 1086
cur table: 1078
epoch: 1000
next table: 2004
cur table: 1890
epoch: 1000
next table: 1067
cur table: 1086
epoch: 1000
next table: 1849
cur table: 2004
epoch: 1000
next table: 1066
cur table: 1067
epoch: 1000
next table: 1835
cur table: 1849
epoch: 1000
next table: 1060
cur table: 1066
epoch: 1000
next table: 1690
cur table: 1835
epoch: 1000
next table: 1063
cur table: 1060
epoch: 1000
next table: 1796
cur table: 1690
epoch: 1000
next table: 1062
cur table: 1063
epoch: 1000
next table: 1693
cur table: 1796
epoch: 1000
next table: 1074
cur table: 1062
epoch: 1000
next table: 2016
cur table: 1693
epoch: 1000
next table: 1088
cur table: 1074
epoch: 1000
next table: 1862
cur table: 2016
epoch: 1000
next table: 1068
cur table: 1088
epoch: 1000
next table: 1921
cur table: 1862
epoch: 1000
next table: 1073
cur table: 1068
epoch: 1000
next table: 1787
cur table: 1921
epoch: 1000
next table: 1076
cur table: 1073
epoch: 1000
next table: 1818
cur table: 1787
epoch: 1000
next table: 1148
cur table: 1076
epoch: 1000
next table: 1689
cur table: 1818
epoch: 1000
next table: 1141
cur table: 1148
epoch: 1000
next table: 1911
cur table: 1689
epoch: 1000
next table: 1078
cur table: 1141
epoch: 1000
next table: 2005
cur table: 1911
epoch: 1000
next table: 1070
cur table: 1078
epoch: 1000
next table: 1859
cur table: 2005
epoch: 1000
next table: 1068
cur table: 1070
epoch: 1000
next table: 1845
cur table: 1859
epoch: 1000
next table: 1060
cur table: 1068
epoch: 1000
next table: 1677
cur table: 1845
epoch: 1000
next table: 1061
cur table: 1060
epoch: 1000
next table: 1811
cur table: 1677
epoch: 1000
next table: 1095
cur table: 1061
epoch: 1000
next table: 1825
cur table: 1811
epoch: 1000
next table: 1068
cur table: 1095
epoch: 1000
next table: 1875
cur table: 1825
epoch: 1000
next table: 1065
cur table: 1068
epoch: 1000
next table: 1972
cur table: 1875
epoch: 1000
next table: 1072
cur table: 1065
epoch: 1000
next table: 1819
cur table: 1972
epoch: 1000
next table: 1066
cur table: 1072
epoch: 1000
next table: 1815
cur table: 1819
epoch: 1000
next table: 1063
cur table: 1066
epoch: 1000
next table: 1806
cur table: 1815
epoch: 1000
next table: 1118
cur table: 1063
epoch: 1000
next table: 1799
cur table: 1806
epoch: 1000
next table: 1064
cur table: 1118
epoch: 1000
next table: 1824
cur table: 1799
epoch: 1000
next table: 1081
cur table: 1064
epoch: 1000
next table: 1877
cur table: 1824
epoch: 1000
next table: 1064
cur table: 1081
epoch: 1000
next table: 1856
cur table: 1877
epoch: 1000
next table: 1067
cur table: 1064
epoch: 1000
next table: 1863
cur table: 1856
epoch: 1000
next table: 1838
[...]
epoch: 1000
next table: 1870
cur table: 1826
epoch: 1000
next table: 1249
cur table: 1081
epoch: 1000
next table: 1754
cur table: 1870
epoch: 1000
next table: 1065
cur table: 1249
epoch: 1000
next table: 1900
cur table: 1754
epoch: 1000
next table: 1061
cur table: 1065
epoch: 1000
next table: 1773
cur table: 1900
epoch: 1000
next table: 1064
cur table: 1061
epoch: 1000
next table: 1823
cur table: 1773
epoch: 1000
next table: 1061
cur table: 1064
epoch: 1000
next table: 1668
cur table: 1823
epoch: 1000
next table: 1069
cur table: 1061
epoch: 1000
next table: 1843
cur table: 1668
epoch: 1000
next table: 1076
cur table: 1069
epoch: 1000
next table: 1978
cur table: 1843
epoch: 1000
next table: 1083
cur table: 1076
epoch: 1000
next table: 1896
cur table: 1978
epoch: 1000
next table: 1069
cur table: 1083
epoch: 1000
next table: 1849
cur table: 1896
epoch: 1000
next table: 1063
cur table: 1069
epoch: 1000
next table: 1723
cur table: 1849
epoch: 1000
next table: 1061
cur table: 1063
epoch: 1000
next table: 1794
cur table: 1723
epoch: 1000
next table: 1086
cur table: 1061
epoch: 1000
next table: 1821
cur table: 1794
epoch: 1000
next table: 1066
cur table: 1086
epoch: 1000
next table: 1863
cur table: 1821
epoch: 1000
next table: 1084
cur table: 1066
epoch: 1000
next table: 2005
cur table: 1863
epoch: 1000
next table: 1073
cur table: 1084
epoch: 1000
next table: 1870
cur table: 2005
epoch: 1000
next table: 1069
cur table: 1073
epoch: 1000
next table: 1850
cur table: 1870
epoch: 1000
next table: 1064
cur table: 1069
epoch: 1000
next table: 1811
cur table: 1850
epoch: 1000
next table: 1054
cur table: 1064
epoch: 1000
next table: 1680
cur table: 1811
epoch: 1000
next table: 1088
cur table: 1054
epoch: 1000
next table: 1815
cur table: 1680
epoch: 1000
next table: 1205
cur table: 1088
epoch: 1000
next table: 1896
cur table: 1815
epoch: 1000
next table: 1069
cur table: 1205
epoch: 1000
next table: 1899
cur table: 1896
epoch: 1000
next table: 1072
cur table: 1069
epoch: 1000
next table: 1848
cur table: 1899
epoch: 1000
next table: 1060
cur table: 1072
epoch: 1000
next table: 1721
cur table: 1848
epoch: 1000
next table: 1086
cur table: 1060
epoch: 1000
next table: 1805
cur table: 1721
epoch: 1000
next table: 1088
cur table: 1086
epoch: 1000
next table: 1808
cur table: 1805
epoch: 1000
next table: 1067
cur table: 1088
epoch: 1000
next table: 1849
cur table: 1808
epoch: 1000
next table: 1073
cur table: 1067
epoch: 1000
next table: 1872
cur table: 1849
epoch: 1000
next table: 1080
cur table: 1073
epoch: 1000
next table: 1997
cur table: 1872
epoch: 1000
next table: 1067
cur table: 1080
epoch: 1000
next table: 1854
cur table: 1997
epoch: 1000
next table: 1088
cur table: 1067
epoch: 1000
next table: 1691
cur table: 1854
epoch: 1000
next table: 1061
cur table: 1088
epoch: 1000
next table: 1806
cur table: 1691
epoch: 1000
next table: 1063
cur table: 1061
epoch: 1000
next table: 1690
cur table: 1806
epoch: 1000
next table: 1072
cur table: 1063
epoch: 1000
next table: 2000
cur table: 1690
epoch: 1000
next table: 1876
cur table: 2000
epoch: 1000
next table: 1074
cur table: 1072
epoch: 1000
next table: 1944
cur table: 1876
epoch: 1000
next table: 1083
cur table: 1074
epoch: 1000
next table: 1810
cur table: 1944
epoch: 1000
next table: 1062
cur table: 1083
epoch: 1000
next table: 1775
cur table: 1810
epoch: 1000
next table: 1061
cur table: 1062
Heartbeat CPU 0 instructions: 100000002 cycles: 65230297 heartbeat IPC: 1.01143 cumulative IPC: 1.01675 (Simulation time: 0 hr 44 min 20 sec) 
Finished CPU 0 instructions: 50000001 cycles: 49176365 cumulative IPC: 1.01675 (Simulation time: 0 hr 44 min 20 sec) 

ChampSim completed all CPUs

Region of Interest Statistics

CPU 0 cumulative IPC: 1.01675 instructions: 50000001 cycles: 49176365
ITLB TOTAL     ACCESS:    6708555  HIT:    6708555  MISS:          0  HIT %:        100  MISS %:          0   MPKI: 0
ITLB LOAD TRANSLATION ACCESS:    6708555  HIT:    6708555  MISS:          0  HIT %:        100  MISS %:          0   MPKI: 0
ITLB PREFETCH  REQUESTED:          0  ISSUED:          0  USEFUL:          0  USELESS:          0
ITLB USEFUL LOAD PREFETCHES:          0 PREFETCH ISSUED TO LOWER LEVEL:          0  ACCURACY: -nan
ITLB TIMELY PREFETCHES:          0 LATE PREFETCHES: 0 DROPPED PREFETCHES: 0
ITLB PREFETCHES SAME FILL-ORIGIN LEVEL: 0 DIFFERENT FILL-ORIGIN LEVEL: 0
ITLB AVERAGE MISS LATENCY: -nan cycles
ITLB RQ	ACCESS:    8366445	FORWARD:          0	MERGED:    1657891	TO_CACHE:    6708554

Revised Interactions: positive negative neutral
ITLB_interactions 0 0 0 -nan -nan -nan
DTLB TOTAL     ACCESS:   13255087  HIT:   13235251  MISS:      19836  HIT %:    99.8504  MISS %:   0.149648   MPKI: 0.39672
DTLB LOAD TRANSLATION ACCESS:   13255087  HIT:   13235251  MISS:      19836  HIT %:    99.8504  MISS %:   0.149648   MPKI: 0.39672
DTLB PREFETCH  REQUESTED:          0  ISSUED:          0  USEFUL:          0  USELESS:          0
DTLB USEFUL LOAD PREFETCHES:          0 PREFETCH ISSUED TO LOWER LEVEL:          0  ACCURACY: -nan
DTLB TIMELY PREFETCHES:          0 LATE PREFETCHES: 0 DROPPED PREFETCHES: 0
DTLB PREFETCHES SAME FILL-ORIGIN LEVEL: 0 DIFFERENT FILL-ORIGIN LEVEL: 0
DTLB AVERAGE MISS LATENCY: 514.413 cycles
DTLB RQ	ACCESS:   14349700	FORWARD:          0	MERGED:    1091289	TO_CACHE:   13258411

Revised Interactions: positive negative neutral
DTLB_interactions 0 0 0 -nan -nan -nan
STLB TOTAL     ACCESS:      19836  HIT:       3405  MISS:      16431  HIT %:    17.1658  MISS %:    82.8342   MPKI: 0.32862
STLB LOAD TRANSLATION ACCESS:      19836  HIT:       3405  MISS:      16431  HIT %:    17.1658  MISS %:    82.8342   MPKI: 0.32862
STLB PREFETCH  REQUESTED:          0  ISSUED:          0  USEFUL:          0  USELESS:          0
STLB USEFUL LOAD PREFETCHES:          0 PREFETCH ISSUED TO LOWER LEVEL:          0  ACCURACY: -nan
STLB TIMELY PREFETCHES:          0 LATE PREFETCHES: 0 DROPPED PREFETCHES: 0
STLB PREFETCHES SAME FILL-ORIGIN LEVEL: 0 DIFFERENT FILL-ORIGIN LEVEL: 0
STLB AVERAGE MISS LATENCY: 609.087 cycles
STLB RQ	ACCESS:      19836	FORWARD:          0	MERGED:          0	TO_CACHE:      19836

Revised Interactions: positive negative neutral
STLB_interactions 0 0 0 -nan -nan -nan
STLB Hit, L1D data hit: 0
STLB Hit, L2C data hit: 0
STLB Hit, LLC data hit: 0
STLB Hit, LLC data miss: 0
STLB STLB hints to L2: 0
L1D TOTAL     ACCESS:   14268980  HIT:   13622586  MISS:     646394  HIT %:    95.4699  MISS %:    4.53006   MPKI: 12.9279
L1D LOAD      ACCESS:   12594343  HIT:   11953159  MISS:     641184  HIT %:     94.909  MISS %:    5.09105   MPKI: 12.8237
L1D RFO       ACCESS:    1674637  HIT:    1669427  MISS:       5210  HIT %:    99.6889  MISS %:   0.311112   MPKI: 0.1042
L1D PREFETCH  REQUESTED:          0  ISSUED:          0  USEFUL:          0  USELESS:          0
L1D USEFUL LOAD PREFETCHES:          0 PREFETCH ISSUED TO LOWER LEVEL:          0  ACCURACY: -nan
L1D TIMELY PREFETCHES:          0 LATE PREFETCHES: 0 DROPPED PREFETCHES: 0
L1D PREFETCHES SAME FILL-ORIGIN LEVEL: 0 DIFFERENT FILL-ORIGIN LEVEL: 0
L1D AVERAGE MISS LATENCY: 26.7445 cycles
L1D RQ	ACCESS:   19112556	FORWARD:          0	MERGED:    6462716	TO_CACHE:   12649832
L1D WQ	ACCESS:    1699868	FORWARD:          8	MERGED:          0	TO_CACHE:    1699868

Revised Interactions: positive negative neutral
L1D_interactions 0 0 0 -nan -nan -nan
L1D UNIQUE REGIONS ACCESSED: 0
L1D REGIONS CONFLICTS: 0
L1D Cross Page Prefetch Requests: 0
L1D Same Page Prefetch Requests: 0
L1D ROI Sum of L1D PQ occupancy: 0
L1D PREFETCHES PUSHED FROM L2C: 0
L1I TOTAL     ACCESS:    8366447  HIT:    8366447  MISS:          0  HIT %:        100  MISS %:          0   MPKI: 0
L1I LOAD      ACCESS:    8366447  HIT:    8366447  MISS:          0  HIT %:        100  MISS %:          0   MPKI: 0
L1I PREFETCH  REQUESTED:          0  ISSUED:          0  USEFUL:          0  USELESS:          0
L1I USEFUL LOAD PREFETCHES:          0 PREFETCH ISSUED TO LOWER LEVEL:          0  ACCURACY: -nan
L1I TIMELY PREFETCHES:          0 LATE PREFETCHES: 0 DROPPED PREFETCHES: 0
L1I PREFETCHES SAME FILL-ORIGIN LEVEL: 0 DIFFERENT FILL-ORIGIN LEVEL: 0
L1I AVERAGE MISS LATENCY: -nan cycles
L1I RQ	ACCESS:   13397267	FORWARD:          0	MERGED:    5030822	TO_CACHE:    8366445

Revised Interactions: positive negative neutral
L1I_interactions 0 0 0 -nan -nan -nan
BTB TOTAL     ACCESS:    2491689  HIT:    2491678  MISS:         11  HIT %:    99.9996  MISS %: 0.000441468   MPKI: 0.00022
BTB BRANCH_DIRECT_JUMP	ACCESS:         40  HIT:         39  MISS:          1
BTB BRANCH_INDIRECT	ACCESS:          0  HIT:          0  MISS:          0
BTB BRANCH_CONDITIONAL	ACCESS:    2491569  HIT:    2491561  MISS:          8
BTB BRANCH_DIRECT_CALL	ACCESS:         40  HIT:         39  MISS:          1
BTB BRANCH_INDIRECT_CALL	ACCESS:          0  HIT:          0  MISS:          0
BTB BRANCH_RETURN	ACCESS:         40  HIT:         39  MISS:          1
BTB BRANCH_OTHER ACCESS:          0  HIT:          0  MISS:          0

L2C TOTAL     ACCESS:    1478897  HIT:     672258  MISS:     806639  HIT %:    45.4567  MISS %:    54.5433   MPKI: 16.1328
L2C LOAD      ACCESS:     641183  HIT:     597241  MISS:      43942  HIT %:    93.1467  MISS %:    6.85327   MPKI: 0.87884
L2C DATA LOAD MPKI: 0.87884
L2C INSTRUCTION LOAD MPKI: 0
L2C RFO       ACCESS:       5210  HIT:         43  MISS:       5167  HIT %:   0.825336  MISS %:    99.1747   MPKI: 0.10334
L2C PREFETCH  ACCESS:     799775  HIT:      60462  MISS:     739313  HIT %:    7.55988  MISS %:    92.4401   MPKI: 14.7863
L2C DATA PREFETCH MPKI: 14.7863
L2C INSTRUCTION PREFETCH MPKI: 0
L2C WRITEBACK ACCESS:       8077  HIT:       3393  MISS:       4684  HIT %:    42.0082  MISS %:    57.9918   MPKI: 0.09368
L2C LOAD TRANSLATION ACCESS:      24652  HIT:      11119  MISS:      13533  HIT %:    45.1038  MISS %:    54.8962   MPKI: 0.27066
L2C PREFETCH  REQUESTED:     801975  ISSUED:     801975  USEFUL:     593207  USELESS:     146033
L2C USEFUL LOAD PREFETCHES:     593207 PREFETCH ISSUED TO LOWER LEVEL:     739889  ACCURACY: 80.1751
L2C TIMELY PREFETCHES:     593207 LATE PREFETCHES: 577 DROPPED PREFETCHES: 0
L2C PREFETCHES SAME FILL-ORIGIN LEVEL: 739889 DIFFERENT FILL-ORIGIN LEVEL: 0
L2C AVERAGE MISS LATENCY: 171.916 cycles
L2C RQ	ACCESS:     671045	FORWARD:          0	MERGED:          0	TO_CACHE:     671045
L2C WQ	ACCESS:       8077	FORWARD:          0	MERGED:          0	TO_CACHE:       8077
L2C PQ	ACCESS:     801975	FORWARD:          0	MERGED:          0	TO_CACHE:     801975

Revised Interactions: positive negative neutral
L2C_interactions 593088 142373 8599 79.7097 19.1346 1.15569
L2C Instructions Evicting Data 0
L2C Translations Evicting Data 13312
L2C Data Evicting Data 775193
L2C Instructions Evicting Instructions 0
L2C Translations Evicting Instructions 0
L2C Data Evicting Instructions 0
L2C Instructions Evicting Translations 0
L2C Translations Evicting Translations 221
L2C Data Evicting Translations 13229
L2C Dense regions hint from L2: 0
PSCL5 TOTAL     ACCESS:      16431  HIT:      16431  MISS:          0  HIT %:        100  MISS %:          0   MPKI: 0
PSCL5 LOAD TRANSLATION ACCESS:      16431  HIT:      16431  MISS:          0  HIT %:        100  MISS %:          0   MPKI: 0
PSCL5 PREFETCH  REQUESTED:          0  ISSUED:          0  USEFUL:          0  USELESS:          0
PSCL5 USEFUL LOAD PREFETCHES:          0 PREFETCH ISSUED TO LOWER LEVEL:          0  ACCURACY: -nan
PSCL5 TIMELY PREFETCHES:          0 LATE PREFETCHES: 0 DROPPED PREFETCHES: 0
PSCL5 PREFETCHES SAME FILL-ORIGIN LEVEL: 0 DIFFERENT FILL-ORIGIN LEVEL: 0

Revised Interactions: positive negative neutral
PSCL5_interactions 0 0 0 -nan -nan -nan
PSCL4 TOTAL     ACCESS:      16431  HIT:      16431  MISS:          0  HIT %:        100  MISS %:          0   MPKI: 0
PSCL4 LOAD TRANSLATION ACCESS:      16431  HIT:      16431  MISS:          0  HIT %:        100  MISS %:          0   MPKI: 0
PSCL4 PREFETCH  REQUESTED:          0  ISSUED:          0  USEFUL:          0  USELESS:          0
PSCL4 USEFUL LOAD PREFETCHES:          0 PREFETCH ISSUED TO LOWER LEVEL:          0  ACCURACY: -nan
PSCL4 TIMELY PREFETCHES:          0 LATE PREFETCHES: 0 DROPPED PREFETCHES: 0
PSCL4 PREFETCHES SAME FILL-ORIGIN LEVEL: 0 DIFFERENT FILL-ORIGIN LEVEL: 0

Revised Interactions: positive negative neutral
PSCL4_interactions 0 0 0 -nan -nan -nan
PSCL3 TOTAL     ACCESS:      16431  HIT:      16419  MISS:         12  HIT %:     99.927  MISS %:  0.0730327   MPKI: 0.00024
PSCL3 LOAD TRANSLATION ACCESS:      16431  HIT:      16419  MISS:         12  HIT %:     99.927  MISS %:  0.0730327   MPKI: 0.00024
PSCL3 PREFETCH  REQUESTED:          0  ISSUED:          0  USEFUL:          0  USELESS:          0
PSCL3 USEFUL LOAD PREFETCHES:          0 PREFETCH ISSUED TO LOWER LEVEL:          0  ACCURACY: -nan
PSCL3 TIMELY PREFETCHES:          0 LATE PREFETCHES: 0 DROPPED PREFETCHES: 0
PSCL3 PREFETCHES SAME FILL-ORIGIN LEVEL: 0 DIFFERENT FILL-ORIGIN LEVEL: 0

Revised Interactions: positive negative neutral
PSCL3_interactions 0 0 0 -nan -nan -nan
PSCL2 TOTAL     ACCESS:      16431  HIT:       8156  MISS:       8275  HIT %:    49.6379  MISS %:    50.3621   MPKI: 0.1655
PSCL2 LOAD TRANSLATION ACCESS:      16431  HIT:       8156  MISS:       8275  HIT %:    49.6379  MISS %:    50.3621   MPKI: 0.1655
PSCL2 PREFETCH  REQUESTED:          0  ISSUED:          0  USEFUL:          0  USELESS:          0
PSCL2 USEFUL LOAD PREFETCHES:          0 PREFETCH ISSUED TO LOWER LEVEL:          0  ACCURACY: -nan
PSCL2 TIMELY PREFETCHES:          0 LATE PREFETCHES: 0 DROPPED PREFETCHES: 0
PSCL2 PREFETCHES SAME FILL-ORIGIN LEVEL: 0 DIFFERENT FILL-ORIGIN LEVEL: 0

Revised Interactions: positive negative neutral
PSCL2_interactions 0 0 0 -nan -nan -nan
LLC TOTAL     ACCESS:     807539  HIT:      20695  MISS:     786844  HIT %:    2.56272  MISS %:    97.4373   MPKI: 15.7369
LLC LOAD      ACCESS:      43365  HIT:       5476  MISS:      37889  HIT %:    12.6277  MISS %:    87.3723   MPKI: 0.75778
LLC RFO       ACCESS:       5167  HIT:         40  MISS:       5127  HIT %:   0.774144  MISS %:    99.2259   MPKI: 0.10254
LLC PREFETCH  ACCESS:     739890  HIT:       6920  MISS:     732970  HIT %:   0.935274  MISS %:    99.0647   MPKI: 14.6594
LLC WRITEBACK ACCESS:       5584  HIT:       2512  MISS:       3072  HIT %:    44.9857  MISS %:    55.0143   MPKI: 0.06144
LLC LOAD TRANSLATION ACCESS:      13533  HIT:       5747  MISS:       7786  HIT %:    42.4666  MISS %:    57.5334   MPKI: 0.15572
LLC PREFETCH  REQUESTED:          0  ISSUED:          0  USEFUL:        283  USELESS:     730502
LLC USEFUL LOAD PREFETCHES:        283 PREFETCH ISSUED TO LOWER LEVEL:     732969  ACCURACY: 0.0386101
LLC TIMELY PREFETCHES:        283 LATE PREFETCHES: 0 DROPPED PREFETCHES: 0
LLC PREFETCHES SAME FILL-ORIGIN LEVEL: 0 DIFFERENT FILL-ORIGIN LEVEL: 0
LLC AVERAGE MISS LATENCY: 142.526 cycles
LLC RQ	ACCESS:      62065	FORWARD:          0	MERGED:          0	TO_CACHE:      62065
LLC WQ	ACCESS:       5584	FORWARD:          0	MERGED:          0	TO_CACHE:       5584
LLC PQ	ACCESS:     739889	FORWARD:          0	MERGED:          0	TO_CACHE:     739889

Revised Interactions: positive negative neutral
LLC_interactions 690 730413 30458 0.0906034 95.91 3.99942
LLC Dense regions hint to LLC: 0

RAW hits: 79
Loads Generated: 19112635
Loads sent to L1D: 19112556
Stores Generated: 1699868
Stores sent to L1D: 1699868
Major fault: 0 Minor fault: 33297
Allocated PAGES: 33297
[Bingo] PHT Access: 35177
[Bingo] PHT Hit PC+Addr: 497
[Bingo] PHT Hit PC+Offs: 34118
[Bingo] PHT Miss: 562
[Bingo] Prefetch PC+Addr: 0
[Bingo] Prefetch PC+Offs: 0
[Bingo] Useful PC+Addr: 0
[Bingo] Useful PC+Offs: 0
[Bingo] Useless PC+Addr: 0
[Bingo] Useless PC+Offs: 0
[Bingo] L1 Prefetch per Region: 0
[Bingo] L2 Prefetch per Region: 25.0448
[Bingo] L3 Prefetch per Region: 0
[Bingo] No Prefetch per Region: 6.95522
[Bingo] Number of Voters Mean: 14.113
[Bingo] Number of Voters SD: 14.6475
PHT read accesses: 550888
PHT write accesses: 31928
AT read accesses: 629126
AT write accesses: 637760
FT read accesses: 99368
FT write accesses: 35177
PS read accesses: 120889
PS write accesses: 34615
PHT tag read accesses: 1572564
PHT tag write accesses: 32425
AT tag read accesses: 24514937
AT tag write accesses: 661050
FT tag read accesses: 15131453
FT tag write accesses: 102451
PS tag read accesses: 11621310
PS tag write accesses: 154331

DRAM Statistics
 CHANNEL 0
 RQ ROW_BUFFER_HIT:     621350  ROW_BUFFER_MISS:     162421
 DBUS_CONGESTED:         44
 WQ ROW_BUFFER_HIT:        597  ROW_BUFFER_MISS:       5505  FULL:          0

 AVG_CONGESTED_CYCLE: 4
 All warmup complete: 2
Channel 0 Bank busy for read cycles: 0
Channel 0 Bank busy for write cycles: 0
Channel 0
Rank 0
0banks busy for read cycles: 37807438
0banks busy for write cycles: 2264
1banks busy for read cycles: 2772877
1banks busy for write cycles: 281620
2banks busy for read cycles: 898047
2banks busy for write cycles: 79916
3banks busy for read cycles: 418981
3banks busy for write cycles: 43772
4banks busy for read cycles: 365518
4banks busy for write cycles: 28149
5banks busy for read cycles: 392899
5banks busy for write cycles: 22268
6banks busy for read cycles: 403442
6banks busy for write cycles: 16602
7banks busy for read cycles: 1166125
7banks busy for write cycles: 14494
8banks busy for read cycles: 4450069
8banks busy for write cycles: 11885

CPU 0 Branch Prediction Accuracy: 99.9281% MPKI: 0.0361 Average ROB Occupancy at Mispredict: 90.4399
Branch types
NOT_BRANCH: 47488720 94.9774%
BRANCH_DIRECT_JUMP: 40 8e-05%
BRANCH_INDIRECT: 0 0%
BRANCH_CONDITIONAL: 2510857 5.02171%
BRANCH_DIRECT_CALL: 40 8e-05%
BRANCH_INDIRECT_CALL: 0 0%
BRANCH_RETURN: 40 8e-05%
BRANCH_OTHER: 0 0%

@sumon_overall_L1D         0         0         0         0         0         0         0
@Sumon_Early_by_class_L1D         0         0         0         0
@Sumon_Late_by_class_L1D         0         0         0         0

@Sumon_Early_by_cycle_L1D         0         0         0         0         0         0         0         0         0         0         0         0
@Sumon_Late_by_cycle_L1D         0         0         0         0         0         0
@Sumon_Early_stream_L1D         0         0         0         0         0         0         0         0         0         0         0         0
@Sumon_Early_CS_L1D         0         0         0         0         0         0         0         0         0         0         0         0
@Sumon_Early_CPLX_L1D         0         0         0         0         0         0         0         0         0         0         0         0
@Sumon_Late_stream_L1D         0         0         0         0         0         0
@Sumon_Late_CS_L1D         0         0         0         0         0         0
@Sumon_Late_CPLX_L1D         0         0         0         0         0         0
@sumon_overall_L2C    593207       577         0    146033    739313    801975    801975
@Sumon_Early_by_class_L2C         0         0         0         0
@Sumon_Late_by_class_L2C         0         0         0         0

@Sumon_Early_by_cycle_L2C      1379      6619     16838     15906     12668     93753    140919    235347     69432       113       115       118
@Sumon_Late_by_cycle_L2C       215       101        65        86       110         0
@Sumon_Early_stream_L2C         0         0         0         0         0         0         0         0         0         0         0         0
@Sumon_Early_CS_L2C         0         0         0         0         0         0         0         0         0         0         0         0
@Sumon_Early_CPLX_L2C         0         0         0         0         0         0         0         0         0         0         0         0
@Sumon_Late_stream_L2C         0         0         0         0         0         0
@Sumon_Late_CS_L2C         0         0         0         0         0         0
@Sumon_Late_CPLX_L2C         0         0         0         0         0         0
DRAM PAGES: 1048576
Allocated PAGES: 33297
