
*** ChampSim Multicore Out-of-Order Simulator ***

Warmup Instructions: 10000000
Simulation Instructions: 50000000
Number of CPUs: 1
LLC sets: 2048
LLC ways: 16
Off-chip DRAM Size: 4096 MB Channels: 1 Width: 64-bit Data Rate: 6400 MT/s
CPU 0 runs traces/SPEC2017/603.bwaves_s-2609B.champsimtrace.xz
.xz
CPU 0 Bimodal branch predictor
BTB has LRU replacement policy
ITLB has LRU replacement policy
DTLB has LRU replacement policy
STLB has LRU replacement policy
L1I has LRU replacement policy
IP Table Entries: 256
Initialize DRRIP state for L1D
IP_Table L2 entries: 256
Initialize DRRIP state for L2C
LLC has LRU replacement policy
Heartbeat CPU 0 instructions: 10000002 cycles: 3309740 heartbeat IPC: 3.02139 cumulative IPC: 3.02139 (Simulation time: 0 hr 13 min 49 sec) 

Warmup complete CPU 0 instructions: 10000002 cycles: 3309740 (Simulation time: 0 hr 13 min 49 sec) 

Heartbeat CPU 0 instructions: 20000001 cycles: 16413652 heartbeat IPC: 0.763131 cumulative IPC: 0.763131 (Simulation time: 0 hr 23 min 48 sec) 
Heartbeat CPU 0 instructions: 30000001 cycles: 29592897 heartbeat IPC: 0.758769 cumulative IPC: 0.760944 (Simulation time: 0 hr 34 min 3 sec) 
Heartbeat CPU 0 instructions: 40000000 cycles: 42772654 heartbeat IPC: 0.758739 cumulative IPC: 0.760207 (Simulation time: 0 hr 44 min 11 sec) 
Heartbeat CPU 0 instructions: 50000002 cycles: 55967025 heartbeat IPC: 0.757899 cumulative IPC: 0.759629 (Simulation time: 0 hr 53 min 50 sec) 
Heartbeat CPU 0 instructions: 60000000 cycles: 69142270 heartbeat IPC: 0.758999 cumulative IPC: 0.759503 (Simulation time: 1 hr 1 min 17 sec) 
Finished CPU 0 instructions: 50000000 cycles: 65832531 cumulative IPC: 0.759503 (Simulation time: 1 hr 1 min 17 sec) 

ChampSim completed all CPUs

Region of Interest Statistics

CPU 0 cumulative IPC: 0.759503 instructions: 50000000 cycles: 65832531
ITLB TOTAL     ACCESS:    6356434  HIT:    6356434  MISS:          0  HIT %:        100  MISS %:          0   MPKI: 0
ITLB LOAD TRANSLATION ACCESS:    6356434  HIT:    6356434  MISS:          0  HIT %:        100  MISS %:          0   MPKI: 0
ITLB PREFETCH  REQUESTED:          0  ISSUED:          0  USEFUL:          0  USELESS:          0
ITLB USEFUL LOAD PREFETCHES:          0 PREFETCH ISSUED TO LOWER LEVEL:          0  ACCURACY: -nan
ITLB TIMELY PREFETCHES:          0 LATE PREFETCHES: 0 DROPPED PREFETCHES: 0
ITLB PREFETCHES SAME FILL-ORIGIN LEVEL: 0 DIFFERENT FILL-ORIGIN LEVEL: 0
ITLB AVERAGE MISS LATENCY: -nan cycles
ITLB RQ	ACCESS:    8462997	FORWARD:          0	MERGED:    2106563	TO_CACHE:    6356434

DTLB TOTAL     ACCESS:   16395409  HIT:   16361352  MISS:      34057  HIT %:    99.7923  MISS %:   0.207723   MPKI: 0.68114
DTLB LOAD TRANSLATION ACCESS:   16395409  HIT:   16361352  MISS:      34057  HIT %:    99.7923  MISS %:   0.207723   MPKI: 0.68114
DTLB PREFETCH  REQUESTED:          0  ISSUED:          0  USEFUL:          0  USELESS:          0
DTLB USEFUL LOAD PREFETCHES:          0 PREFETCH ISSUED TO LOWER LEVEL:          0  ACCURACY: -nan
DTLB TIMELY PREFETCHES:          0 LATE PREFETCHES: 0 DROPPED PREFETCHES: 0
DTLB PREFETCHES SAME FILL-ORIGIN LEVEL: 0 DIFFERENT FILL-ORIGIN LEVEL: 0
DTLB AVERAGE MISS LATENCY: 224.028 cycles
DTLB RQ	ACCESS:   19027353	FORWARD:          0	MERGED:    2626863	TO_CACHE:   16400490

STLB TOTAL     ACCESS:    3982037  HIT:    3967194  MISS:      14843  HIT %:    99.6273  MISS %:   0.372749   MPKI: 0.29686
STLB LOAD TRANSLATION ACCESS:      34057  HIT:      19214  MISS:      14843  HIT %:    56.4172  MISS %:    43.5828   MPKI: 0.29686
STLB TRANSLATION FROM L1D PREFETCHER ACCESS:    3947980  HIT:    3947980  MISS:          0  HIT %:        100  MISS %:          0   MPKI: 0
STLB PREFETCH  REQUESTED:          0  ISSUED:          0  USEFUL:          0  USELESS:          0
STLB USEFUL LOAD PREFETCHES:          0 PREFETCH ISSUED TO LOWER LEVEL:          0  ACCURACY: -nan
STLB TIMELY PREFETCHES:          0 LATE PREFETCHES: 0 DROPPED PREFETCHES: 0
STLB PREFETCHES SAME FILL-ORIGIN LEVEL: 0 DIFFERENT FILL-ORIGIN LEVEL: 0
STLB AVERAGE MISS LATENCY: 467.222 cycles
STLB RQ	ACCESS:    4982116	FORWARD:          0	MERGED:    1000080	TO_CACHE:    3982036

STLB Hit, L1D data hit: 0
STLB Hit, L2C data hit: 0
STLB Hit, LLC data hit: 0
STLB Hit, LLC data miss: 0
STLB STLB hints to L2: 0
L1D TOTAL     ACCESS:   23183203  HIT:   20004485  MISS:    3178718  HIT %:    86.2887  MISS %:    13.7113   MPKI: 63.5744
L1D LOAD      ACCESS:   16028615  HIT:   14128919  MISS:    1899696  HIT %:    88.1481  MISS %:    11.8519   MPKI: 37.9939
L1D RFO       ACCESS:    2807146  HIT:    2782103  MISS:      25043  HIT %:    99.1079  MISS %:   0.892116   MPKI: 0.50086
L1D PREFETCH  ACCESS:    4347442  HIT:    3093463  MISS:    1253979  HIT %:    71.1559  MISS %:    28.8441   MPKI: 25.0796
L1D PREFETCH  REQUESTED:    9920507  ISSUED:    9896118  USEFUL:     436211  USELESS:     817777
L1D USEFUL LOAD PREFETCHES:     436211 PREFETCH ISSUED TO LOWER LEVEL:    1693497  ACCURACY: 25.758
L1D TIMELY PREFETCHES:     436211 LATE PREFETCHES: 439523 DROPPED PREFETCHES: 0
L1D PREFETCHES SAME FILL-ORIGIN LEVEL: 1693497 DIFFERENT FILL-ORIGIN LEVEL: 0
L1D AVERAGE MISS LATENCY: 5.0096e+06 cycles
L1D RQ	ACCESS:   21266132	FORWARD:          0	MERGED:    4986044	TO_CACHE:   16210690
L1D WQ	ACCESS:    2816699	FORWARD:      69398	MERGED:         36	TO_CACHE:    2816663
L1D PQ	ACCESS:    4948059	FORWARD:          0	MERGED:          0	TO_CACHE:    4948059

L1D UNIQUE REGIONS ACCESSED: 0
L1D REGIONS CONFLICTS: 0
L1D Cross Page Prefetch Requests: 0
L1D Same Page Prefetch Requests: 5888436
L1D ROI Sum of L1D PQ occupancy: 90290158
L1D PREFETCHES PUSHED FROM L2C: 0
L1I TOTAL     ACCESS:    8462997  HIT:    8462997  MISS:          0  HIT %:        100  MISS %:          0   MPKI: 0
L1I LOAD      ACCESS:    8462997  HIT:    8462997  MISS:          0  HIT %:        100  MISS %:          0   MPKI: 0
L1I PREFETCH  REQUESTED:          0  ISSUED:          0  USEFUL:          0  USELESS:          0
L1I USEFUL LOAD PREFETCHES:          0 PREFETCH ISSUED TO LOWER LEVEL:          0  ACCURACY: -nan
L1I TIMELY PREFETCHES:          0 LATE PREFETCHES: 0 DROPPED PREFETCHES: 0
L1I PREFETCHES SAME FILL-ORIGIN LEVEL: 0 DIFFERENT FILL-ORIGIN LEVEL: 0
L1I AVERAGE MISS LATENCY: -nan cycles
L1I RQ	ACCESS:   11737563	FORWARD:          0	MERGED:    3274566	TO_CACHE:    8462997

BTB TOTAL     ACCESS:    1208719  HIT:    1208714  MISS:          5  HIT %:    99.9996  MISS %: 0.000413661   MPKI: 0.0001
BTB BRANCH_DIRECT_JUMP	ACCESS:          0  HIT:          0  MISS:          0
BTB BRANCH_INDIRECT	ACCESS:          0  HIT:          0  MISS:          0
BTB BRANCH_CONDITIONAL	ACCESS:    1208719  HIT:    1208714  MISS:          5
BTB BRANCH_DIRECT_CALL	ACCESS:          0  HIT:          0  MISS:          0
BTB BRANCH_INDIRECT_CALL	ACCESS:          0  HIT:          0  MISS:          0
BTB BRANCH_RETURN	ACCESS:          0  HIT:          0  MISS:          0
BTB BRANCH_OTHER ACCESS:          0  HIT:          0  MISS:          0

L2C TOTAL     ACCESS:    3219004  HIT:    2259528  MISS:     959476  HIT %:    70.1934  MISS %:    29.8066   MPKI: 19.1895
L2C LOAD      ACCESS:    1460172  HIT:    1420310  MISS:      39862  HIT %:      97.27  MISS %:    2.72995   MPKI: 0.79724
L2C DATA LOAD MPKI: 0.79724
L2C INSTRUCTION LOAD MPKI: 0
L2C RFO       ACCESS:      25041  HIT:        679  MISS:      24362  HIT %:    2.71155  MISS %:    97.2884   MPKI: 0.48724
L2C PREFETCH  ACCESS:    1693501  HIT:     801198  MISS:     892303  HIT %:    47.3102  MISS %:    52.6898   MPKI: 17.8461
L2C DATA PREFETCH MPKI: 17.8461
L2C INSTRUCTION PREFETCH MPKI: 0
L2C WRITEBACK ACCESS:      25445  HIT:      24530  MISS:        915  HIT %:     96.404  MISS %:    3.59599   MPKI: 0.0183
L2C LOAD TRANSLATION ACCESS:      14845  HIT:      12811  MISS:       2034  HIT %:    86.2984  MISS %:    13.7016   MPKI: 0.04068
L2C PREFETCH  REQUESTED:          0  ISSUED:          0  USEFUL:     423483  USELESS:     467752
L2C USEFUL LOAD PREFETCHES:     423483 PREFETCH ISSUED TO LOWER LEVEL:     892303  ACCURACY: 47.4596
L2C TIMELY PREFETCHES:     423483 LATE PREFETCHES: 0 DROPPED PREFETCHES: 0
L2C PREFETCHES SAME FILL-ORIGIN LEVEL: 0 DIFFERENT FILL-ORIGIN LEVEL: 0
L2C AVERAGE MISS LATENCY: 298.363 cycles
L2C RQ	ACCESS:    1500060	FORWARD:          0	MERGED:          0	TO_CACHE:    1500058
L2C WQ	ACCESS:      25445	FORWARD:          2	MERGED:          0	TO_CACHE:      25445
L2C PQ	ACCESS:    1693497	FORWARD:          0	MERGED:          0	TO_CACHE:    1693497

L2C Instructions Evicting Data 0
L2C Translations Evicting Data 2033
L2C Data Evicting Data 954496
L2C Instructions Evicting Instructions 0
L2C Translations Evicting Instructions 0
L2C Data Evicting Instructions 0
L2C Instructions Evicting Translations 0
L2C Translations Evicting Translations 1
L2C Data Evicting Translations 2031
L2C Dense regions hint from L2: 0
PSCL5 TOTAL     ACCESS:      14843  HIT:      14843  MISS:          0  HIT %:        100  MISS %:          0   MPKI: 0
PSCL5 LOAD TRANSLATION ACCESS:      14843  HIT:      14843  MISS:          0  HIT %:        100  MISS %:          0   MPKI: 0
PSCL5 PREFETCH  REQUESTED:          0  ISSUED:          0  USEFUL:          0  USELESS:          0
PSCL5 USEFUL LOAD PREFETCHES:          0 PREFETCH ISSUED TO LOWER LEVEL:          0  ACCURACY: -nan
PSCL5 TIMELY PREFETCHES:          0 LATE PREFETCHES: 0 DROPPED PREFETCHES: 0
PSCL5 PREFETCHES SAME FILL-ORIGIN LEVEL: 0 DIFFERENT FILL-ORIGIN LEVEL: 0

PSCL4 TOTAL     ACCESS:      14843  HIT:      14843  MISS:          0  HIT %:        100  MISS %:          0   MPKI: 0
PSCL4 LOAD TRANSLATION ACCESS:      14843  HIT:      14843  MISS:          0  HIT %:        100  MISS %:          0   MPKI: 0
PSCL4 PREFETCH  REQUESTED:          0  ISSUED:          0  USEFUL:          0  USELESS:          0
PSCL4 USEFUL LOAD PREFETCHES:          0 PREFETCH ISSUED TO LOWER LEVEL:          0  ACCURACY: -nan
PSCL4 TIMELY PREFETCHES:          0 LATE PREFETCHES: 0 DROPPED PREFETCHES: 0
PSCL4 PREFETCHES SAME FILL-ORIGIN LEVEL: 0 DIFFERENT FILL-ORIGIN LEVEL: 0

PSCL3 TOTAL     ACCESS:      14843  HIT:      14843  MISS:          0  HIT %:        100  MISS %:          0   MPKI: 0
PSCL3 LOAD TRANSLATION ACCESS:      14843  HIT:      14843  MISS:          0  HIT %:        100  MISS %:          0   MPKI: 0
PSCL3 PREFETCH  REQUESTED:          0  ISSUED:          0  USEFUL:          0  USELESS:          0
PSCL3 USEFUL LOAD PREFETCHES:          0 PREFETCH ISSUED TO LOWER LEVEL:          0  ACCURACY: -nan
PSCL3 TIMELY PREFETCHES:          0 LATE PREFETCHES: 0 DROPPED PREFETCHES: 0
PSCL3 PREFETCHES SAME FILL-ORIGIN LEVEL: 0 DIFFERENT FILL-ORIGIN LEVEL: 0

PSCL2 TOTAL     ACCESS:      14843  HIT:      14812  MISS:         31  HIT %:    99.7911  MISS %:   0.208853   MPKI: 0.00062
PSCL2 LOAD TRANSLATION ACCESS:      14843  HIT:      14812  MISS:         31  HIT %:    99.7911  MISS %:   0.208853   MPKI: 0.00062
PSCL2 PREFETCH  REQUESTED:          0  ISSUED:          0  USEFUL:          0  USELESS:          0
PSCL2 USEFUL LOAD PREFETCHES:          0 PREFETCH ISSUED TO LOWER LEVEL:          0  ACCURACY: -nan
PSCL2 TIMELY PREFETCHES:          0 LATE PREFETCHES: 0 DROPPED PREFETCHES: 0
PSCL2 PREFETCHES SAME FILL-ORIGIN LEVEL: 0 DIFFERENT FILL-ORIGIN LEVEL: 0

LLC TOTAL     ACCESS:     982979  HIT:      30952  MISS:     952027  HIT %:     3.1488  MISS %:    96.8512   MPKI: 19.0405
LLC LOAD      ACCESS:      39862  HIT:        217  MISS:      39645  HIT %:   0.544378  MISS %:    99.4556   MPKI: 0.7929
LLC RFO       ACCESS:      24362  HIT:          0  MISS:      24362  HIT %:          0  MISS %:        100   MPKI: 0.48724
LLC PREFETCH  ACCESS:     892303  HIT:       6184  MISS:     886119  HIT %:   0.693038  MISS %:     99.307   MPKI: 17.7224
LLC WRITEBACK ACCESS:      24418  HIT:      24404  MISS:         14  HIT %:    99.9427  MISS %:  0.0573348   MPKI: 0.00028
LLC LOAD TRANSLATION ACCESS:       2034  HIT:        147  MISS:       1887  HIT %:    7.22714  MISS %:    92.7729   MPKI: 0.03774
LLC PREFETCH  REQUESTED:          0  ISSUED:          0  USEFUL:        140  USELESS:     886522
LLC USEFUL LOAD PREFETCHES:        140 PREFETCH ISSUED TO LOWER LEVEL:     886119  ACCURACY: 0.0157992
LLC TIMELY PREFETCHES:        140 LATE PREFETCHES: 0 DROPPED PREFETCHES: 0
LLC PREFETCHES SAME FILL-ORIGIN LEVEL: 0 DIFFERENT FILL-ORIGIN LEVEL: 0
LLC AVERAGE MISS LATENCY: 269.71 cycles
LLC RQ	ACCESS:      66258	FORWARD:          0	MERGED:          0	TO_CACHE:      66258
LLC WQ	ACCESS:      24418	FORWARD:          0	MERGED:          0	TO_CACHE:      24418
LLC PQ	ACCESS:     892303	FORWARD:          0	MERGED:          0	TO_CACHE:     892303

LLC Dense regions hint to LLC: 0

RAW hits: 223885
Loads Generated: 21490017
Loads sent to L1D: 21266132
Stores Generated: 2816699
Stores sent to L1D: 2816699
Major fault: 0 Minor fault: 17250
Allocated PAGES: 17250

stream: 
stream:times selected: 6911242
stream:pref_filled: 1455948
stream:pref_useful: 484651
stream:pref_late: 438074
stream:misses: 6789
stream:misses_by_poll: 0

CS: 
CS:times selected: 6593632
CS:pref_filled: 35813
CS:pref_useful: 10320
CS:pref_late: 2476
CS:misses: 16614
CS:misses_by_poll: 121

CPLX: 
CPLX:times selected: 6910254
CPLX:pref_filled: 162594
CPLX:pref_useful: 26928
CPLX:pref_late: 2011
CPLX:misses: 2541802
CPLX:misses_by_poll: 512

NL_L1: 
NL:times selected: 2183
NL:pref_filled: 395
NL:pref_useful: 75
NL:pref_late: 5
NL:misses: 756
NL:misses_by_poll: 0

total selections: 20417311
total_filled: 1253979
total_useful: 436211
total_late: 450551
total_polluted: 633
total_misses_after_warmup: 2081776
conflicts: 9
Degree Incremented Times: 0
Degree Decremented Times: 281026

L1 IP Table Write Accesses: 16209830
L1 IP Table Read Accesses: 16209821
L1 RST Write Accesses: 5781309
L1 RST Read Accesses: 11562618
L1 CSPT Write Accesses: 5781309
L1 CSPT Read Accesses: 11562603
L1 RR Filter Tag Write Accesses: 4972448
L1 RR Filter Tag Read Accesses: 430765326
L1 IP Table Tag Write Accesses: 16210695
L1 IP Table Tag Read Accesses: 16210695
L1 RST Tag Write Accesses: 0
L1 RST Tag Read Accesses: 52035843
L1 RR Filter Write Accesses: 0
L1 RR Filter Read Accesses: 16716566
test: 136527
L2 IP Table Read Accesses: 6306766
L2 IP Table Write Accesses: 4846594
L2 IP Table Tag Read Accesses: 3153383
L2 IP Table Tag Write Accesses: 3153383

DRAM Statistics
 CHANNEL 0
 RQ ROW_BUFFER_HIT:     729335  ROW_BUFFER_MISS:     222677
 DBUS_CONGESTED:         51
 WQ ROW_BUFFER_HIT:       1913  ROW_BUFFER_MISS:      22493  FULL:          0

 AVG_CONGESTED_CYCLE: 4
 All warmup complete: 2
Channel 0 Bank busy for read cycles: 0
Channel 0 Bank busy for write cycles: 0
Channel 0
Rank 0
0banks busy for read cycles: 26584021
0banks busy for write cycles: 10026
1banks busy for read cycles: 17614185
1banks busy for write cycles: 678148
2banks busy for read cycles: 9798475
2banks busy for write cycles: 278676
3banks busy for read cycles: 7789039
3banks busy for write cycles: 803874
4banks busy for read cycles: 1617973
4banks busy for write cycles: 78771
5banks busy for read cycles: 549578
5banks busy for write cycles: 12243
6banks busy for read cycles: 11905
6banks busy for write cycles: 2816
7banks busy for read cycles: 122
7banks busy for write cycles: 1484
8banks busy for read cycles: 0
8banks busy for write cycles: 1196

CPU 0 Branch Prediction Accuracy: 81.2317% MPKI: 4.6848 Average ROB Occupancy at Mispredict: 81.4831
Branch types
NOT_BRANCH: 48751584 97.5032%
BRANCH_DIRECT_JUMP: 0 0%
BRANCH_INDIRECT: 0 0%
BRANCH_CONDITIONAL: 1248062 2.49612%
BRANCH_DIRECT_CALL: 0 0%
BRANCH_INDIRECT_CALL: 0 0%
BRANCH_RETURN: 0 0%
BRANCH_OTHER: 0 0%

@sumon_overall_L1D    436211    439523    817777   1253979   9896118   9920507
@Sumon_Early_by_class_L1D    403056      8971     24117         3
@Sumon_Late_by_class_L1D    427721      2266      1953         3

@Sumon_Early_by_cycle_L1D    128234     37250     48376     41631     30983     78264     66331       123      5008         5         6         0
@Sumon_Late_by_cycle_L1D     69335    137059    204389     28702        38         0         0         0         0         0         0         0
@Sumon_Early_stream_L1D    109920     33833     45330     40862     30597     77217     65194       103         0         0         0         0
@Sumon_Early_CS_L1D      5277       495       417       401       323      1001      1054         3         0         0         0         0
@Sumon_Early_CPLX_L1D     12981      2920      2629       366        60        44        81        17      5008         5         6         0
@Sumon_Late_stream_L1D     60414    135935    202814     28520        38         0         0         0         0         0         0         0
@Sumon_Late_CS_L1D      1086       469       630        81         0         0         0         0         0         0         0         0
@Sumon_Late_CPLX_L1D       252       655       945       101         0         0         0         0         0         0         0         0
@sumon_overall_L2C    423483         0    467752    892303         0         0
@Sumon_Early_by_class_L2C    408499      1938     13022         0
@Sumon_Late_by_class_L2C         0         0         0         0

@Sumon_Early_by_cycle_L2C      7094     75316    170847     77529     27365     51193       806         9     12140         0         5      1179
@Sumon_Late_by_cycle_L2C         0         0         0         0         0         0         0         0         0         0         0         0
@Sumon_Early_stream_L2C      7070     75023    169913     76958     27095     50624       751         9         0         0         0      1056
@Sumon_Early_CS_L2C        15       165       556       403       232       538        16         0         0         0         0        13
@Sumon_Early_CPLX_L2C         9       127       378       168        33        13        39         0     12140         0         5       110
@Sumon_Late_stream_L2C         0         0         0         0         0         0         0         0         0         0         0         0
@Sumon_Late_CS_L2C         0         0         0         0         0         0         0         0         0         0         0         0
@Sumon_Late_CPLX_L2C         0         0         0         0         0         0         0         0         0         0         0         0
DRAM PAGES: 1048576
Allocated PAGES: 17250
