
*** ChampSim Multicore Out-of-Order Simulator ***

Warmup Instructions: 10000000
Simulation Instructions: 50000000
Number of CPUs: 1
LLC sets: 2048
LLC ways: 16
Off-chip DRAM Size: 4096 MB Channels: 1 Width: 64-bit Data Rate: 6400 MT/s
CPU 0 runs traces/SPEC2017/605.mcf_s-1554B.champsimtrace.xz
.xz
CPU 0 Bimodal branch predictor
BTB has LRU replacement policy
ITLB has LRU replacement policy
DTLB has LRU replacement policy
STLB has LRU replacement policy
L1I has LRU replacement policy
IP Table Entries: 256
Initialize DRRIP state for L1D
IP_Table L2 entries: 256
Initialize DRRIP state for L2C
LLC has LRU replacement policy
Heartbeat CPU 0 instructions: 10000001 cycles: 3509742 heartbeat IPC: 2.84921 cumulative IPC: 2.84921 (Simulation time: 0 hr 18 min 30 sec) 

Warmup complete CPU 0 instructions: 10000001 cycles: 3509742 (Simulation time: 0 hr 18 min 30 sec) 

Heartbeat CPU 0 instructions: 20000001 cycles: 38228388 heartbeat IPC: 0.28803 cumulative IPC: 0.28803 (Simulation time: 0 hr 44 min 43 sec) 
Heartbeat CPU 0 instructions: 30000000 cycles: 72480725 heartbeat IPC: 0.291951 cumulative IPC: 0.289977 (Simulation time: 1 hr 4 min 40 sec) 
Heartbeat CPU 0 instructions: 40000000 cycles: 107058062 heartbeat IPC: 0.289207 cumulative IPC: 0.28972 (Simulation time: 1 hr 12 min 17 sec) 
Heartbeat CPU 0 instructions: 50000000 cycles: 141751074 heartbeat IPC: 0.288242 cumulative IPC: 0.289349 (Simulation time: 1 hr 15 min 47 sec) 
Heartbeat CPU 0 instructions: 60000001 cycles: 176327345 heartbeat IPC: 0.289216 cumulative IPC: 0.289322 (Simulation time: 1 hr 17 min 24 sec) 
Finished CPU 0 instructions: 50000000 cycles: 172817603 cumulative IPC: 0.289322 (Simulation time: 1 hr 17 min 24 sec) 

ChampSim completed all CPUs

Region of Interest Statistics

CPU 0 cumulative IPC: 0.289322 instructions: 50000000 cycles: 172817603
ITLB TOTAL     ACCESS:   10514750  HIT:   10514750  MISS:          0  HIT %:        100  MISS %:          0   MPKI: 0
ITLB LOAD TRANSLATION ACCESS:   10514750  HIT:   10514750  MISS:          0  HIT %:        100  MISS %:          0   MPKI: 0
ITLB PREFETCH  REQUESTED:          0  ISSUED:          0  USEFUL:          0  USELESS:          0
ITLB USEFUL LOAD PREFETCHES:          0 PREFETCH ISSUED TO LOWER LEVEL:          0  ACCURACY: -nan
ITLB TIMELY PREFETCHES:          0 LATE PREFETCHES: 0 DROPPED PREFETCHES: 0
ITLB PREFETCHES SAME FILL-ORIGIN LEVEL: 0 DIFFERENT FILL-ORIGIN LEVEL: 0
ITLB AVERAGE MISS LATENCY: -nan cycles
ITLB RQ	ACCESS:   12759377	FORWARD:          0	MERGED:    2244627	TO_CACHE:   10514750

DTLB TOTAL     ACCESS:   16057560  HIT:   15860409  MISS:     197151  HIT %:    98.7722  MISS %:    1.22778   MPKI: 3.94302
DTLB LOAD TRANSLATION ACCESS:   16057560  HIT:   15860409  MISS:     197151  HIT %:    98.7722  MISS %:    1.22778   MPKI: 3.94302
DTLB PREFETCH  REQUESTED:          0  ISSUED:          0  USEFUL:          0  USELESS:          0
DTLB USEFUL LOAD PREFETCHES:          0 PREFETCH ISSUED TO LOWER LEVEL:          0  ACCURACY: -nan
DTLB TIMELY PREFETCHES:          0 LATE PREFETCHES: 0 DROPPED PREFETCHES: 0
DTLB PREFETCHES SAME FILL-ORIGIN LEVEL: 0 DIFFERENT FILL-ORIGIN LEVEL: 0
DTLB AVERAGE MISS LATENCY: 13.3919 cycles
DTLB RQ	ACCESS:   19637803	FORWARD:          0	MERGED:    3574477	TO_CACHE:   16063326

STLB TOTAL     ACCESS:    6377681  HIT:    6373259  MISS:       4422  HIT %:    99.9307  MISS %:  0.0693355   MPKI: 0.08844
STLB LOAD TRANSLATION ACCESS:     197151  HIT:     192730  MISS:       4421  HIT %:    97.7576  MISS %:    2.24244   MPKI: 0.08842
STLB TRANSLATION FROM L1D PREFETCHER ACCESS:    6180530  HIT:    6180529  MISS:          1  HIT %:        100  MISS %: 1.61798e-05   MPKI: 2e-05
STLB PREFETCH  REQUESTED:          0  ISSUED:          0  USEFUL:          1  USELESS:          0
STLB USEFUL LOAD PREFETCHES:          1 PREFETCH ISSUED TO LOWER LEVEL:          0  ACCURACY: inf
STLB TIMELY PREFETCHES:          1 LATE PREFETCHES: 0 DROPPED PREFETCHES: 0
STLB PREFETCHES SAME FILL-ORIGIN LEVEL: 0 DIFFERENT FILL-ORIGIN LEVEL: 0
STLB AVERAGE MISS LATENCY: 194.81 cycles
STLB RQ	ACCESS:   20374643	FORWARD:          0	MERGED:   13996963	TO_CACHE:    6377680

STLB Hit, L1D data hit: 0
STLB Hit, L2C data hit: 0
STLB Hit, LLC data hit: 0
STLB Hit, LLC data miss: 0
STLB STLB hints to L2: 0
L1D TOTAL     ACCESS:   35081655  HIT:   22277097  MISS:   12804558  HIT %:    63.5007  MISS %:    36.4993   MPKI: 256.091
L1D LOAD      ACCESS:   16227957  HIT:   12654956  MISS:    3573001  HIT %:    77.9824  MISS %:    22.0176   MPKI: 71.46
L1D RFO       ACCESS:    2514859  HIT:    2354544  MISS:     160315  HIT %:    93.6253  MISS %:    6.37471   MPKI: 3.2063
L1D PREFETCH  ACCESS:   16338839  HIT:    7267597  MISS:    9071242  HIT %:    44.4805  MISS %:    55.5195   MPKI: 181.425
L1D PREFETCH  REQUESTED:   44980128  ISSUED:   40403629  USEFUL:    3996572  USELESS:    5074584
L1D USEFUL LOAD PREFETCHES:    3996572 PREFETCH ISSUED TO LOWER LEVEL:   10897795  ACCURACY: 36.6732
L1D TIMELY PREFETCHES:    3996572 LATE PREFETCHES: 1826428 DROPPED PREFETCHES: 0
L1D PREFETCHES SAME FILL-ORIGIN LEVEL: 10897795 DIFFERENT FILL-ORIGIN LEVEL: 0
L1D AVERAGE MISS LATENCY: 1.27968e+07 cycles
L1D RQ	ACCESS:   20637996	FORWARD:          0	MERGED:    3968211	TO_CACHE:   16641983
L1D WQ	ACCESS:    3596625	FORWARD:      27803	MERGED:     600805	TO_CACHE:    2995820
L1D PQ	ACCESS:   20226137	FORWARD:          0	MERGED:      48644	TO_CACHE:   20177492

L1D UNIQUE REGIONS ACCESSED: 0
L1D REGIONS CONFLICTS: 0
L1D Cross Page Prefetch Requests: 0
L1D Same Page Prefetch Requests: 23077799
L1D ROI Sum of L1D PQ occupancy: 946819816
L1D PREFETCHES PUSHED FROM L2C: 0
L1I TOTAL     ACCESS:   12759374  HIT:   12759374  MISS:          0  HIT %:        100  MISS %:          0   MPKI: 0
L1I LOAD      ACCESS:   12759374  HIT:   12759374  MISS:          0  HIT %:        100  MISS %:          0   MPKI: 0
L1I PREFETCH  REQUESTED:          0  ISSUED:          0  USEFUL:          0  USELESS:          0
L1I USEFUL LOAD PREFETCHES:          0 PREFETCH ISSUED TO LOWER LEVEL:          0  ACCURACY: -nan
L1I TIMELY PREFETCHES:          0 LATE PREFETCHES: 0 DROPPED PREFETCHES: 0
L1I PREFETCHES SAME FILL-ORIGIN LEVEL: 0 DIFFERENT FILL-ORIGIN LEVEL: 0
L1I AVERAGE MISS LATENCY: -nan cycles
L1I RQ	ACCESS:   17557606	FORWARD:          0	MERGED:    4798229	TO_CACHE:   12759377

BTB TOTAL     ACCESS:    8799469  HIT:    8799437  MISS:         32  HIT %:    99.9996  MISS %: 0.000363658   MPKI: 0.00064
BTB BRANCH_DIRECT_JUMP	ACCESS:    2054756  HIT:    2054750  MISS:          6
BTB BRANCH_INDIRECT	ACCESS:          0  HIT:          0  MISS:          0
BTB BRANCH_CONDITIONAL	ACCESS:    6743909  HIT:    6743887  MISS:         22
BTB BRANCH_DIRECT_CALL	ACCESS:        402  HIT:        400  MISS:          2
BTB BRANCH_INDIRECT_CALL	ACCESS:          0  HIT:          0  MISS:          0
BTB BRANCH_RETURN	ACCESS:        402  HIT:        400  MISS:          2
BTB BRANCH_OTHER ACCESS:          0  HIT:          0  MISS:          0

L2C TOTAL     ACCESS:   13004324  HIT:    1657424  MISS:   11346900  HIT %:    12.7452  MISS %:    87.2548   MPKI: 226.938
L2C LOAD      ACCESS:    1746571  HIT:     297631  MISS:    1448940  HIT %:    17.0409  MISS %:    82.9591   MPKI: 28.9788
L2C DATA LOAD MPKI: 28.9788
L2C INSTRUCTION LOAD MPKI: 0
L2C RFO       ACCESS:     159984  HIT:      11246  MISS:     148738  HIT %:    7.02945  MISS %:    92.9705   MPKI: 2.97476
L2C PREFETCH  ACCESS:   10897961  HIT:    1234438  MISS:    9663523  HIT %:    11.3272  MISS %:    88.6728   MPKI: 193.27
L2C DATA PREFETCH MPKI: 193.27
L2C INSTRUCTION PREFETCH MPKI: 0
L2C WRITEBACK ACCESS:     195386  HIT:     112442  MISS:      82944  HIT %:    57.5486  MISS %:    42.4514   MPKI: 1.65888
L2C LOAD TRANSLATION ACCESS:       4421  HIT:       1667  MISS:       2754  HIT %:    37.7064  MISS %:    62.2936   MPKI: 0.05508
L2C TRANSLATION FROM L1D PREFETCHER ACCESS:          1  HIT:          0  MISS:          1  HIT %:          0  MISS %:        100   MPKI: 2e-05
L2C PREFETCH  REQUESTED:        181  ISSUED:        181  USEFUL:     128622  USELESS:    9534962
L2C USEFUL LOAD PREFETCHES:     128622 PREFETCH ISSUED TO LOWER LEVEL:    9663531  ACCURACY: 1.331
L2C TIMELY PREFETCHES:     128622 LATE PREFETCHES: 0 DROPPED PREFETCHES: 0
L2C PREFETCHES SAME FILL-ORIGIN LEVEL: 177 DIFFERENT FILL-ORIGIN LEVEL: 0
L2C AVERAGE MISS LATENCY: 162.021 cycles
L2C RQ	ACCESS:    1911196	FORWARD:          0	MERGED:          0	TO_CACHE:    1910979
L2C WQ	ACCESS:     195386	FORWARD:        223	MERGED:          0	TO_CACHE:     195386
L2C PQ	ACCESS:   10897976	FORWARD:          0	MERGED:          0	TO_CACHE:   10897970

L2C Instructions Evicting Data 0
L2C Translations Evicting Data 2752
L2C Data Evicting Data 11258507
L2C Instructions Evicting Instructions 0
L2C Translations Evicting Instructions 0
L2C Data Evicting Instructions 0
L2C Instructions Evicting Translations 0
L2C Translations Evicting Translations 3
L2C Data Evicting Translations 2694
L2C Dense regions hint from L2: 0
PSCL5 TOTAL     ACCESS:       4422  HIT:       4422  MISS:          0  HIT %:        100  MISS %:          0   MPKI: 0
PSCL5 LOAD TRANSLATION ACCESS:       4421  HIT:       4421  MISS:          0  HIT %:        100  MISS %:          0   MPKI: 0
PSCL5 TRANSLATION FROM L1D PREFETCHER ACCESS:          1  HIT:          1  MISS:          0  HIT %:        100  MISS %:          0   MPKI: 0
PSCL5 PREFETCH  REQUESTED:          0  ISSUED:          0  USEFUL:          0  USELESS:          0
PSCL5 USEFUL LOAD PREFETCHES:          0 PREFETCH ISSUED TO LOWER LEVEL:          0  ACCURACY: -nan
PSCL5 TIMELY PREFETCHES:          0 LATE PREFETCHES: 0 DROPPED PREFETCHES: 0
PSCL5 PREFETCHES SAME FILL-ORIGIN LEVEL: 0 DIFFERENT FILL-ORIGIN LEVEL: 0

PSCL4 TOTAL     ACCESS:       4422  HIT:       4422  MISS:          0  HIT %:        100  MISS %:          0   MPKI: 0
PSCL4 LOAD TRANSLATION ACCESS:       4421  HIT:       4421  MISS:          0  HIT %:        100  MISS %:          0   MPKI: 0
PSCL4 TRANSLATION FROM L1D PREFETCHER ACCESS:          1  HIT:          1  MISS:          0  HIT %:        100  MISS %:          0   MPKI: 0
PSCL4 PREFETCH  REQUESTED:          0  ISSUED:          0  USEFUL:          0  USELESS:          0
PSCL4 USEFUL LOAD PREFETCHES:          0 PREFETCH ISSUED TO LOWER LEVEL:          0  ACCURACY: -nan
PSCL4 TIMELY PREFETCHES:          0 LATE PREFETCHES: 0 DROPPED PREFETCHES: 0
PSCL4 PREFETCHES SAME FILL-ORIGIN LEVEL: 0 DIFFERENT FILL-ORIGIN LEVEL: 0

PSCL3 TOTAL     ACCESS:       4422  HIT:       4422  MISS:          0  HIT %:        100  MISS %:          0   MPKI: 0
PSCL3 LOAD TRANSLATION ACCESS:       4421  HIT:       4421  MISS:          0  HIT %:        100  MISS %:          0   MPKI: 0
PSCL3 TRANSLATION FROM L1D PREFETCHER ACCESS:          1  HIT:          1  MISS:          0  HIT %:        100  MISS %:          0   MPKI: 0
PSCL3 PREFETCH  REQUESTED:          0  ISSUED:          0  USEFUL:          0  USELESS:          0
PSCL3 USEFUL LOAD PREFETCHES:          0 PREFETCH ISSUED TO LOWER LEVEL:          0  ACCURACY: -nan
PSCL3 TIMELY PREFETCHES:          0 LATE PREFETCHES: 0 DROPPED PREFETCHES: 0
PSCL3 PREFETCHES SAME FILL-ORIGIN LEVEL: 0 DIFFERENT FILL-ORIGIN LEVEL: 0

PSCL2 TOTAL     ACCESS:       4422  HIT:       4413  MISS:          9  HIT %:    99.7965  MISS %:   0.203528   MPKI: 0.00018
PSCL2 LOAD TRANSLATION ACCESS:       4421  HIT:       4412  MISS:          9  HIT %:    99.7964  MISS %:   0.203574   MPKI: 0.00018
PSCL2 TRANSLATION FROM L1D PREFETCHER ACCESS:          1  HIT:          1  MISS:          0  HIT %:        100  MISS %:          0   MPKI: 0
PSCL2 PREFETCH  REQUESTED:          0  ISSUED:          0  USEFUL:          0  USELESS:          0
PSCL2 USEFUL LOAD PREFETCHES:          0 PREFETCH ISSUED TO LOWER LEVEL:          0  ACCURACY: -nan
PSCL2 TIMELY PREFETCHES:          0 LATE PREFETCHES: 0 DROPPED PREFETCHES: 0
PSCL2 PREFETCHES SAME FILL-ORIGIN LEVEL: 0 DIFFERENT FILL-ORIGIN LEVEL: 0

LLC TOTAL     ACCESS:   11447744  HIT:     177480  MISS:   11270264  HIT %:    1.55035  MISS %:    98.4497   MPKI: 225.405
LLC LOAD      ACCESS:    1448940  HIT:      34268  MISS:    1414672  HIT %:    2.36504  MISS %:     97.635   MPKI: 28.2934
LLC RFO       ACCESS:     148737  HIT:        249  MISS:     148488  HIT %:    0.16741  MISS %:    99.8326   MPKI: 2.96976
LLC PREFETCH  ACCESS:    9663525  HIT:      10205  MISS:    9653320  HIT %:   0.105603  MISS %:    99.8944   MPKI: 193.066
LLC WRITEBACK ACCESS:     183787  HIT:     131022  MISS:      52765  HIT %:    71.2901  MISS %:    28.7099   MPKI: 1.0553
LLC LOAD TRANSLATION ACCESS:       2754  HIT:       1736  MISS:       1018  HIT %:    63.0356  MISS %:    36.9644   MPKI: 0.02036
LLC TRANSLATION FROM L1D PREFETCHER ACCESS:          1  HIT:          0  MISS:          1  HIT %:          0  MISS %:        100   MPKI: 2e-05
LLC PREFETCH  REQUESTED:          0  ISSUED:          0  USEFUL:       2566  USELESS:    9653685
LLC USEFUL LOAD PREFETCHES:       2566 PREFETCH ISSUED TO LOWER LEVEL:    9653327  ACCURACY: 0.0265815
LLC TIMELY PREFETCHES:       2566 LATE PREFETCHES: 0 DROPPED PREFETCHES: 0
LLC PREFETCHES SAME FILL-ORIGIN LEVEL: 0 DIFFERENT FILL-ORIGIN LEVEL: 0
LLC AVERAGE MISS LATENCY: 133.072 cycles
LLC RQ	ACCESS:    1600435	FORWARD:          0	MERGED:          0	TO_CACHE:    1600434
LLC WQ	ACCESS:     183787	FORWARD:          1	MERGED:          0	TO_CACHE:     183787
LLC PQ	ACCESS:    9663531	FORWARD:          0	MERGED:          0	TO_CACHE:    9663531

LLC Dense regions hint to LLC: 0

RAW hits: 2030343
Loads Generated: 22668342
Loads sent to L1D: 20637996
Stores Generated: 3596625
Stores sent to L1D: 3596625
Major fault: 0 Minor fault: 6307
Allocated PAGES: 6307

stream: 
stream:times selected: 12257589
stream:pref_filled: 9651796
stream:pref_useful: 4088448
stream:pref_late: 1414782
stream:misses: 295835
stream:misses_by_poll: 0

CS: 
CS:times selected: 1693257
CS:pref_filled: 99722
CS:pref_useful: 50104
CS:pref_late: 1787
CS:misses: 113779
CS:misses_by_poll: 349

CPLX: 
CPLX:times selected: 10563718
CPLX:pref_filled: 1506086
CPLX:pref_useful: 1015752
CPLX:pref_late: 425273
CPLX:misses: 3872564
CPLX:misses_by_poll: 15428

NL_L1: 
NL:times selected: 20468
NL:pref_filled: 423
NL:pref_useful: 89
NL:pref_late: 1
NL:misses: 13362
NL:misses_by_poll: 0

total selections: 24535032
total_filled: 9071242
total_useful: 3996572
total_late: 1890327
total_polluted: 15777
total_misses_after_warmup: 3987031
conflicts: 20625
Degree Incremented Times: 14649
Degree Decremented Times: 14275

L1 IP Table Write Accesses: 16510773
L1 IP Table Read Accesses: 16490148
L1 RST Write Accesses: 10364879
L1 RST Read Accesses: 20729758
L1 CSPT Write Accesses: 10364879
L1 CSPT Read Accesses: 35416224
L1 RR Filter Tag Write Accesses: 24802636
L1 RR Filter Tag Read Accesses: 1764206103
L1 IP Table Tag Write Accesses: 16641987
L1 IP Table Tag Read Accesses: 16641987
L1 RST Tag Write Accesses: 0
L1 RST Tag Read Accesses: 93192057
L1 RR Filter Write Accesses: 0
L1 RR Filter Read Accesses: 75155666
test: 625430
L2 IP Table Read Accesses: 25288487
L2 IP Table Write Accesses: 23542097
L2 IP Table Tag Read Accesses: 12644334
L2 IP Table Tag Write Accesses: 12644334

DRAM Statistics
 CHANNEL 0
 RQ ROW_BUFFER_HIT:    8767208  ROW_BUFFER_MISS:    2450137
 DBUS_CONGESTED:       6389
 WQ ROW_BUFFER_HIT:      32303  ROW_BUFFER_MISS:     151339  FULL:          0

 AVG_CONGESTED_CYCLE: 5
 All warmup complete: 2
Channel 0 Bank busy for read cycles: 0
Channel 0 Bank busy for write cycles: 0
Channel 0
Rank 0
0banks busy for read cycles: 1503717
0banks busy for write cycles: 471
1banks busy for read cycles: 11574265
1banks busy for write cycles: 638908
2banks busy for read cycles: 12423153
2banks busy for write cycles: 446334
3banks busy for read cycles: 13109483
3banks busy for write cycles: 423568
4banks busy for read cycles: 16549835
4banks busy for write cycles: 424438
5banks busy for read cycles: 25150444
5banks busy for write cycles: 458942
6banks busy for read cycles: 31884151
6banks busy for write cycles: 574914
7banks busy for read cycles: 27695673
7banks busy for write cycles: 1047014
8banks busy for read cycles: 19294901
8banks busy for write cycles: 9617393

CPU 0 Branch Prediction Accuracy: 97.7265% MPKI: 4.14186 Average ROB Occupancy at Mispredict: 48.2083
Branch types
NOT_BRANCH: 40890868 81.7817%
BRANCH_DIRECT_JUMP: 2054756 4.10951%
BRANCH_INDIRECT: 0 0%
BRANCH_CONDITIONAL: 7053559 14.1071%
BRANCH_DIRECT_CALL: 402 0.000804%
BRANCH_INDIRECT_CALL: 0 0%
BRANCH_RETURN: 402 0.000804%
BRANCH_OTHER: 0 0%

@sumon_overall_L1D   3996572   1826428   5074584   9071242  40403629  44980128
@Sumon_Early_by_class_L1D   3244872     41877    709823         0
@Sumon_Late_by_class_L1D   1363682      1730    415253         0

@Sumon_Early_by_cycle_L1D   1292641   1070724    895206    391578    142869    187522     13160      2453       371        44         4         0
@Sumon_Late_by_cycle_L1D    948855    732393    143027      2081        71         1         0         0         0         0         0         0
@Sumon_Early_stream_L1D   1088263    835370    720364    331520    115853    146082      5972      1219       188        37         4         0
@Sumon_Early_CS_L1D      3360      3210      4902      4602      4228     15447      5134       904        87         3         0         0
@Sumon_Early_CPLX_L1D    201018    232144    169940     55456     22788     25993      2054       330        96         4         0         0
@Sumon_Late_stream_L1D    720954    543833     97207      1631        56         1         0         0         0         0         0         0
@Sumon_Late_CS_L1D      1041       600        88         1         0         0         0         0         0         0         0         0
@Sumon_Late_CPLX_L1D    181098    187959     45732       449        15         0         0         0         0         0         0         0
@sumon_overall_L2C    128622         0   9534962   9663524       181       181
@Sumon_Early_by_class_L2C     88416     10669     29537         0
@Sumon_Late_by_class_L2C         0         0         0         0

@Sumon_Early_by_cycle_L2C     14480     36436     29665      9735      3511      7037      3594      1527       497       108        28     22004
@Sumon_Late_by_cycle_L2C         0         0         0         0         0         0         0         0         0         0         0         0
@Sumon_Early_stream_L2C     11687     27286     21540      6938      1957      2098       697       463       136        52        18     15544
@Sumon_Early_CS_L2C        28       162       523       695       858      4353      2757       957       259        23         1        53
@Sumon_Early_CPLX_L2C      2765      8988      7602      2102       696       586       140       107       102        33         9      6407
@Sumon_Late_stream_L2C         0         0         0         0         0         0         0         0         0         0         0         0
@Sumon_Late_CS_L2C         0         0         0         0         0         0         0         0         0         0         0         0
@Sumon_Late_CPLX_L2C         0         0         0         0         0         0         0         0         0         0         0         0
DRAM PAGES: 1048576
Allocated PAGES: 6307
