
*** ChampSim Multicore Out-of-Order Simulator ***

Warmup Instructions: 10000000
Simulation Instructions: 50000000
Number of CPUs: 1
LLC sets: 2048
LLC ways: 16
Off-chip DRAM Size: 4096 MB Channels: 1 Width: 64-bit Data Rate: 6400 MT/s
CPU 0 runs traces/SPEC2017/605.mcf_s-472B.champsimtrace.xz
.xz
CPU 0 Bimodal branch predictor
BTB has LRU replacement policy
ITLB has LRU replacement policy
DTLB has LRU replacement policy
STLB has LRU replacement policy
L1I has LRU replacement policy
IP Table Entries: 256
Initialize DRRIP state for L1D
IP_Table L2 entries: 256
Initialize DRRIP state for L2C
LLC has LRU replacement policy
Heartbeat CPU 0 instructions: 10000001 cycles: 3196950 heartbeat IPC: 3.12798 cumulative IPC: 3.12798 (Simulation time: 0 hr 14 min 0 sec) 

Warmup complete CPU 0 instructions: 10000001 cycles: 3196950 (Simulation time: 0 hr 14 min 0 sec) 

Heartbeat CPU 0 instructions: 20000000 cycles: 37722041 heartbeat IPC: 0.289644 cumulative IPC: 0.289644 (Simulation time: 0 hr 34 min 29 sec) 
Heartbeat CPU 0 instructions: 30000001 cycles: 75714895 heartbeat IPC: 0.263207 cumulative IPC: 0.275794 (Simulation time: 0 hr 55 min 51 sec) 
Heartbeat CPU 0 instructions: 40000000 cycles: 104755948 heartbeat IPC: 0.34434 cumulative IPC: 0.295395 (Simulation time: 1 hr 6 min 9 sec) 
Heartbeat CPU 0 instructions: 50000001 cycles: 134026395 heartbeat IPC: 0.341642 cumulative IPC: 0.305742 (Simulation time: 1 hr 11 min 16 sec) 
Heartbeat CPU 0 instructions: 60000001 cycles: 163113582 heartbeat IPC: 0.343794 cumulative IPC: 0.312663 (Simulation time: 1 hr 14 min 47 sec) 
Finished CPU 0 instructions: 50000000 cycles: 159916632 cumulative IPC: 0.312663 (Simulation time: 1 hr 14 min 47 sec) 

ChampSim completed all CPUs

Region of Interest Statistics

CPU 0 cumulative IPC: 0.312663 instructions: 50000000 cycles: 159916632
ITLB TOTAL     ACCESS:    8742437  HIT:    8742437  MISS:          0  HIT %:        100  MISS %:          0   MPKI: 0
ITLB LOAD TRANSLATION ACCESS:    8742437  HIT:    8742437  MISS:          0  HIT %:        100  MISS %:          0   MPKI: 0
ITLB PREFETCH  REQUESTED:          0  ISSUED:          0  USEFUL:          0  USELESS:          0
ITLB USEFUL LOAD PREFETCHES:          0 PREFETCH ISSUED TO LOWER LEVEL:          0  ACCURACY: -nan
ITLB TIMELY PREFETCHES:          0 LATE PREFETCHES: 0 DROPPED PREFETCHES: 0
ITLB PREFETCHES SAME FILL-ORIGIN LEVEL: 0 DIFFERENT FILL-ORIGIN LEVEL: 0
ITLB AVERAGE MISS LATENCY: -nan cycles
ITLB RQ	ACCESS:   11259664	FORWARD:          0	MERGED:    2517228	TO_CACHE:    8742436

DTLB TOTAL     ACCESS:   14056641  HIT:   13929808  MISS:     126833  HIT %:    99.0977  MISS %:   0.902299   MPKI: 2.53666
DTLB LOAD TRANSLATION ACCESS:   14056641  HIT:   13929808  MISS:     126833  HIT %:    99.0977  MISS %:   0.902299   MPKI: 2.53666
DTLB PREFETCH  REQUESTED:          0  ISSUED:          0  USEFUL:          0  USELESS:          0
DTLB USEFUL LOAD PREFETCHES:          0 PREFETCH ISSUED TO LOWER LEVEL:          0  ACCURACY: -nan
DTLB TIMELY PREFETCHES:          0 LATE PREFETCHES: 0 DROPPED PREFETCHES: 0
DTLB PREFETCHES SAME FILL-ORIGIN LEVEL: 0 DIFFERENT FILL-ORIGIN LEVEL: 0
DTLB AVERAGE MISS LATENCY: 48.2991 cycles
DTLB RQ	ACCESS:   22638225	FORWARD:          0	MERGED:    8538345	TO_CACHE:   14099880

STLB TOTAL     ACCESS:    4447714  HIT:    4373437  MISS:      74277  HIT %:      98.33  MISS %:       1.67   MPKI: 1.48554
STLB LOAD TRANSLATION ACCESS:     126833  HIT:      52587  MISS:      74246  HIT %:    41.4616  MISS %:    58.5384   MPKI: 1.48492
STLB TRANSLATION FROM L1D PREFETCHER ACCESS:    4320881  HIT:    4320850  MISS:         31  HIT %:    99.9993  MISS %: 0.000717446   MPKI: 0.00062
STLB PREFETCH  REQUESTED:          0  ISSUED:          0  USEFUL:         22  USELESS:          9
STLB USEFUL LOAD PREFETCHES:         22 PREFETCH ISSUED TO LOWER LEVEL:          0  ACCURACY: inf
STLB TIMELY PREFETCHES:         22 LATE PREFETCHES: 0 DROPPED PREFETCHES: 0
STLB PREFETCHES SAME FILL-ORIGIN LEVEL: 0 DIFFERENT FILL-ORIGIN LEVEL: 0
STLB AVERAGE MISS LATENCY: 67.1811 cycles
STLB RQ	ACCESS:    6864305	FORWARD:          0	MERGED:    2416591	TO_CACHE:    4447714

STLB Hit, L1D data hit: 0
STLB Hit, L2C data hit: 0
STLB Hit, LLC data hit: 0
STLB Hit, LLC data miss: 0
STLB STLB hints to L2: 0
L1D TOTAL     ACCESS:   27811869  HIT:   23411683  MISS:    4400186  HIT %:    84.1787  MISS %:    15.8213   MPKI: 88.0037
L1D LOAD      ACCESS:   10692143  HIT:    8655385  MISS:    2036758  HIT %:    80.9509  MISS %:    19.0491   MPKI: 40.7352
L1D RFO       ACCESS:   11239616  HIT:   11101078  MISS:     138538  HIT %:    98.7674  MISS %:    1.23259   MPKI: 2.77076
L1D PREFETCH  ACCESS:    5880110  HIT:    3655220  MISS:    2224890  HIT %:    62.1624  MISS %:    37.8376   MPKI: 44.4978
L1D PREFETCH  REQUESTED:   13477055  ISSUED:   13474945  USEFUL:     662679  USELESS:    1562242
L1D USEFUL LOAD PREFETCHES:     662679 PREFETCH ISSUED TO LOWER LEVEL:    2850289  ACCURACY: 23.2495
L1D TIMELY PREFETCHES:     662679 LATE PREFETCHES: 624011 DROPPED PREFETCHES: 0
L1D PREFETCHES SAME FILL-ORIGIN LEVEL: 2850289 DIFFERENT FILL-ORIGIN LEVEL: 0
L1D AVERAGE MISS LATENCY: 1.09615e+07 cycles
L1D RQ	ACCESS:   17025570	FORWARD:          0	MERGED:    6025042	TO_CACHE:   10990520
L1D WQ	ACCESS:   11892813	FORWARD:      10009	MERGED:     245108	TO_CACHE:   11647705
L1D PQ	ACCESS:    6737473	FORWARD:          0	MERGED:          0	TO_CACHE:    6737472

L1D UNIQUE REGIONS ACCESSED: 0
L1D REGIONS CONFLICTS: 0
L1D Cross Page Prefetch Requests: 0
L1D Same Page Prefetch Requests: 8073054
L1D ROI Sum of L1D PQ occupancy: 95657506
L1D PREFETCHES PUSHED FROM L2C: 0
L1I TOTAL     ACCESS:   11259663  HIT:   11259663  MISS:          0  HIT %:        100  MISS %:          0   MPKI: 0
L1I LOAD      ACCESS:   11259663  HIT:   11259663  MISS:          0  HIT %:        100  MISS %:          0   MPKI: 0
L1I PREFETCH  REQUESTED:          0  ISSUED:          0  USEFUL:          0  USELESS:          0
L1I USEFUL LOAD PREFETCHES:          0 PREFETCH ISSUED TO LOWER LEVEL:          0  ACCURACY: -nan
L1I TIMELY PREFETCHES:          0 LATE PREFETCHES: 0 DROPPED PREFETCHES: 0
L1I PREFETCHES SAME FILL-ORIGIN LEVEL: 0 DIFFERENT FILL-ORIGIN LEVEL: 0
L1I AVERAGE MISS LATENCY: -nan cycles
L1I RQ	ACCESS:   15276438	FORWARD:          0	MERGED:    4016774	TO_CACHE:   11259664

BTB TOTAL     ACCESS:    5821401  HIT:    5821367  MISS:         34  HIT %:    99.9994  MISS %: 0.000584052   MPKI: 0.00068
BTB BRANCH_DIRECT_JUMP	ACCESS:     638582  HIT:     638576  MISS:          6
BTB BRANCH_INDIRECT	ACCESS:          0  HIT:          0  MISS:          0
BTB BRANCH_CONDITIONAL	ACCESS:    5182671  HIT:    5182647  MISS:         24
BTB BRANCH_DIRECT_CALL	ACCESS:         74  HIT:         72  MISS:          2
BTB BRANCH_INDIRECT_CALL	ACCESS:          0  HIT:          0  MISS:          0
BTB BRANCH_RETURN	ACCESS:         74  HIT:         72  MISS:          2
BTB BRANCH_OTHER ACCESS:          0  HIT:          0  MISS:          0

L2C TOTAL     ACCESS:    5430187  HIT:    1329797  MISS:    4100390  HIT %:     24.489  MISS %:     75.511   MPKI: 82.0078
L2C LOAD      ACCESS:    1412742  HIT:     119466  MISS:    1293276  HIT %:    8.45632  MISS %:    91.5437   MPKI: 25.8655
L2C DATA LOAD MPKI: 25.8655
L2C INSTRUCTION LOAD MPKI: 0
L2C RFO       ACCESS:     137107  HIT:      13267  MISS:     123840  HIT %:    9.67638  MISS %:    90.3236   MPKI: 2.4768
L2C PREFETCH  ACCESS:    3520390  HIT:     925082  MISS:    2595308  HIT %:    26.2778  MISS %:    73.7222   MPKI: 51.9062
L2C DATA PREFETCH MPKI: 51.9062
L2C INSTRUCTION PREFETCH MPKI: 0
L2C WRITEBACK ACCESS:     285627  HIT:     210074  MISS:      75553  HIT %:    73.5484  MISS %:    26.4516   MPKI: 1.51106
L2C LOAD TRANSLATION ACCESS:      74290  HIT:      61908  MISS:      12382  HIT %:    83.3329  MISS %:    16.6671   MPKI: 0.24764
L2C TRANSLATION FROM L1D PREFETCHER ACCESS:         31  HIT:          0  MISS:         31  HIT %:          0  MISS %:        100   MPKI: 0.00062
L2C PREFETCH  REQUESTED:     941502  ISSUED:     941502  USEFUL:      88429  USELESS:    2507071
L2C USEFUL LOAD PREFETCHES:      88429 PREFETCH ISSUED TO LOWER LEVEL:    2595534  ACCURACY: 3.40697
L2C TIMELY PREFETCHES:      88429 LATE PREFETCHES: 226 DROPPED PREFETCHES: 0
L2C PREFETCHES SAME FILL-ORIGIN LEVEL: 338331 DIFFERENT FILL-ORIGIN LEVEL: 0
L2C AVERAGE MISS LATENCY: 168.978 cycles
L2C RQ	ACCESS:    1624218	FORWARD:          0	MERGED:          0	TO_CACHE:    1624170
L2C WQ	ACCESS:     285627	FORWARD:         50	MERGED:          0	TO_CACHE:     285627
L2C PQ	ACCESS:    3791791	FORWARD:          0	MERGED:      88215	TO_CACHE:    3703574

L2C Instructions Evicting Data 0
L2C Translations Evicting Data 12401
L2C Data Evicting Data 4000506
L2C Instructions Evicting Instructions 0
L2C Translations Evicting Instructions 0
L2C Data Evicting Instructions 0
L2C Instructions Evicting Translations 0
L2C Translations Evicting Translations 12
L2C Data Evicting Translations 11918
L2C Dense regions hint from L2: 0
PSCL5 TOTAL     ACCESS:      74277  HIT:      74277  MISS:          0  HIT %:        100  MISS %:          0   MPKI: 0
PSCL5 LOAD TRANSLATION ACCESS:      74246  HIT:      74246  MISS:          0  HIT %:        100  MISS %:          0   MPKI: 0
PSCL5 TRANSLATION FROM L1D PREFETCHER ACCESS:         31  HIT:         31  MISS:          0  HIT %:        100  MISS %:          0   MPKI: 0
PSCL5 PREFETCH  REQUESTED:          0  ISSUED:          0  USEFUL:          0  USELESS:          0
PSCL5 USEFUL LOAD PREFETCHES:          0 PREFETCH ISSUED TO LOWER LEVEL:          0  ACCURACY: -nan
PSCL5 TIMELY PREFETCHES:          0 LATE PREFETCHES: 0 DROPPED PREFETCHES: 0
PSCL5 PREFETCHES SAME FILL-ORIGIN LEVEL: 0 DIFFERENT FILL-ORIGIN LEVEL: 0

PSCL4 TOTAL     ACCESS:      74277  HIT:      74277  MISS:          0  HIT %:        100  MISS %:          0   MPKI: 0
PSCL4 LOAD TRANSLATION ACCESS:      74246  HIT:      74246  MISS:          0  HIT %:        100  MISS %:          0   MPKI: 0
PSCL4 TRANSLATION FROM L1D PREFETCHER ACCESS:         31  HIT:         31  MISS:          0  HIT %:        100  MISS %:          0   MPKI: 0
PSCL4 PREFETCH  REQUESTED:          0  ISSUED:          0  USEFUL:          0  USELESS:          0
PSCL4 USEFUL LOAD PREFETCHES:          0 PREFETCH ISSUED TO LOWER LEVEL:          0  ACCURACY: -nan
PSCL4 TIMELY PREFETCHES:          0 LATE PREFETCHES: 0 DROPPED PREFETCHES: 0
PSCL4 PREFETCHES SAME FILL-ORIGIN LEVEL: 0 DIFFERENT FILL-ORIGIN LEVEL: 0

PSCL3 TOTAL     ACCESS:      74277  HIT:      74277  MISS:          0  HIT %:        100  MISS %:          0   MPKI: 0
PSCL3 LOAD TRANSLATION ACCESS:      74246  HIT:      74246  MISS:          0  HIT %:        100  MISS %:          0   MPKI: 0
PSCL3 TRANSLATION FROM L1D PREFETCHER ACCESS:         31  HIT:         31  MISS:          0  HIT %:        100  MISS %:          0   MPKI: 0
PSCL3 PREFETCH  REQUESTED:          0  ISSUED:          0  USEFUL:          0  USELESS:          0
PSCL3 USEFUL LOAD PREFETCHES:          0 PREFETCH ISSUED TO LOWER LEVEL:          0  ACCURACY: -nan
PSCL3 TIMELY PREFETCHES:          0 LATE PREFETCHES: 0 DROPPED PREFETCHES: 0
PSCL3 PREFETCHES SAME FILL-ORIGIN LEVEL: 0 DIFFERENT FILL-ORIGIN LEVEL: 0

PSCL2 TOTAL     ACCESS:      74277  HIT:      74201  MISS:         76  HIT %:    99.8977  MISS %:    0.10232   MPKI: 0.00152
PSCL2 LOAD TRANSLATION ACCESS:      74246  HIT:      74170  MISS:         76  HIT %:    99.8976  MISS %:   0.102362   MPKI: 0.00152
PSCL2 TRANSLATION FROM L1D PREFETCHER ACCESS:         31  HIT:         31  MISS:          0  HIT %:        100  MISS %:          0   MPKI: 0
PSCL2 PREFETCH  REQUESTED:          0  ISSUED:          0  USEFUL:          0  USELESS:          0
PSCL2 USEFUL LOAD PREFETCHES:          0 PREFETCH ISSUED TO LOWER LEVEL:          0  ACCURACY: -nan
PSCL2 TIMELY PREFETCHES:          0 LATE PREFETCHES: 0 DROPPED PREFETCHES: 0
PSCL2 PREFETCHES SAME FILL-ORIGIN LEVEL: 0 DIFFERENT FILL-ORIGIN LEVEL: 0

LLC TOTAL     ACCESS:    4282516  HIT:     265203  MISS:    4017313  HIT %:    6.19269  MISS %:    93.8073   MPKI: 80.3463
LLC LOAD      ACCESS:    1293050  HIT:       6789  MISS:    1286261  HIT %:   0.525038  MISS %:     99.475   MPKI: 25.7252
LLC RFO       ACCESS:     123840  HIT:        317  MISS:     123523  HIT %:   0.255975  MISS %:     99.744   MPKI: 2.47046
LLC PREFETCH  ACCESS:    2595534  HIT:      35406  MISS:    2560128  HIT %:    1.36411  MISS %:    98.6359   MPKI: 51.2026
LLC WRITEBACK ACCESS:     257679  HIT:     220313  MISS:      37366  HIT %:     85.499  MISS %:     14.501   MPKI: 0.74732
LLC LOAD TRANSLATION ACCESS:      12382  HIT:       2378  MISS:      10004  HIT %:    19.2053  MISS %:    80.7947   MPKI: 0.20008
LLC TRANSLATION FROM L1D PREFETCHER ACCESS:         31  HIT:          0  MISS:         31  HIT %:          0  MISS %:        100   MPKI: 0.00062
LLC PREFETCH  REQUESTED:          0  ISSUED:          0  USEFUL:       5142  USELESS:    2558216
LLC USEFUL LOAD PREFETCHES:       5142 PREFETCH ISSUED TO LOWER LEVEL:    2560128  ACCURACY: 0.200849
LLC TIMELY PREFETCHES:       5142 LATE PREFETCHES: 0 DROPPED PREFETCHES: 0
LLC PREFETCHES SAME FILL-ORIGIN LEVEL: 0 DIFFERENT FILL-ORIGIN LEVEL: 0
LLC AVERAGE MISS LATENCY: 142.354 cycles
LLC RQ	ACCESS:    1429303	FORWARD:          0	MERGED:          0	TO_CACHE:    1429303
LLC WQ	ACCESS:     257679	FORWARD:          0	MERGED:          0	TO_CACHE:     257679
LLC PQ	ACCESS:    2595534	FORWARD:          0	MERGED:          0	TO_CACHE:    2595534

LLC Dense regions hint to LLC: 0

RAW hits: 727355
Loads Generated: 17752925
Loads sent to L1D: 17025570
Stores Generated: 11892805
Stores sent to L1D: 11892813
Major fault: 0 Minor fault: 13946
Allocated PAGES: 13946

stream: 
stream:times selected: 8136978
stream:pref_filled: 1409873
stream:pref_useful: 170738
stream:pref_late: 191348
stream:misses: 201223
stream:misses_by_poll: 0

CS: 
CS:times selected: 531325
CS:pref_filled: 402583
CS:pref_useful: 330850
CS:pref_late: 3192
CS:misses: 69417
CS:misses_by_poll: 315

CPLX: 
CPLX:times selected: 7568231
CPLX:pref_filled: 735016
CPLX:pref_useful: 270416
CPLX:pref_late: 491532
CPLX:misses: 2187157
CPLX:misses_by_poll: 3690

NL_L1: 
NL:times selected: 45421
NL:pref_filled: 8705
NL:pref_useful: 3756
NL:pref_late: 932
NL:misses: 21860
NL:misses_by_poll: 7

total selections: 16281955
total_filled: 2224890
total_useful: 662679
total_late: 695410
total_polluted: 4012
total_misses_after_warmup: 2335133
conflicts: 24019
Degree Incremented Times: 53469
Degree Decremented Times: 124725

L1 IP Table Write Accesses: 10864221
L1 IP Table Read Accesses: 10840202
L1 RST Write Accesses: 6860383
L1 RST Read Accesses: 13720766
L1 CSPT Write Accesses: 6860383
L1 CSPT Read Accesses: 13207345
L1 RR Filter Tag Write Accesses: 6739583
L1 RR Filter Tag Read Accesses: 326475083
L1 IP Table Tag Write Accesses: 10990518
L1 IP Table Tag Read Accesses: 10990518
L1 RST Tag Write Accesses: 0
L1 RST Tag Read Accesses: 65040956
L1 RR Filter Write Accesses: 0
L1 RR Filter Read Accesses: 11282836
test: 3221017
L2 IP Table Read Accesses: 8218663
L2 IP Table Write Accesses: 6856987
L2 IP Table Tag Read Accesses: 4135233
L2 IP Table Tag Write Accesses: 4135233

DRAM Statistics
 CHANNEL 0
 RQ ROW_BUFFER_HIT:    2572752  ROW_BUFFER_MISS:    1407188
 DBUS_CONGESTED:       4531
 WQ ROW_BUFFER_HIT:      81462  ROW_BUFFER_MISS:     174907  FULL:          0

 AVG_CONGESTED_CYCLE: 5
 All warmup complete: 2
Channel 0 Bank busy for read cycles: 0
Channel 0 Bank busy for write cycles: 0
Channel 0
Rank 0
0banks busy for read cycles: 41332123
0banks busy for write cycles: 18485
1banks busy for read cycles: 29472122
1banks busy for write cycles: 3540188
2banks busy for read cycles: 19398516
2banks busy for write cycles: 1635831
3banks busy for read cycles: 13880171
3banks busy for write cycles: 1094132
4banks busy for read cycles: 10375113
4banks busy for write cycles: 779500
5banks busy for read cycles: 8845348
5banks busy for write cycles: 650421
6banks busy for read cycles: 7970229
6banks busy for write cycles: 629336
7banks busy for read cycles: 6783174
7banks busy for write cycles: 1035254
8banks busy for read cycles: 6205682
8banks busy for write cycles: 6271008

CPU 0 Branch Prediction Accuracy: 98.3401% MPKI: 1.96794 Average ROB Occupancy at Mispredict: 175.547
Branch types
NOT_BRANCH: 44071945 88.1439%
BRANCH_DIRECT_JUMP: 638582 1.27716%
BRANCH_INDIRECT: 0 0%
BRANCH_CONDITIONAL: 5289321 10.5786%
BRANCH_DIRECT_CALL: 74 0.000148%
BRANCH_INDIRECT_CALL: 0 0%
BRANCH_RETURN: 74 0.000148%
BRANCH_OTHER: 0 0%

@sumon_overall_L1D    662679    624011   1562242   2224890  13474945  13477055
@Sumon_Early_by_class_L1D    140231    297999    221742       844
@Sumon_Late_by_class_L1D    176756      2928    437097       844

@Sumon_Early_by_cycle_L1D    181436    114763    138509     76174     33000     51598     17059     18233     15541      8562      4905      2899
@Sumon_Late_by_cycle_L1D    229749    335697     57071      1403        84         7         0         0         0         0         0         0
@Sumon_Early_stream_L1D     76474     33155     12600      1367       124      5042      3377      2702      2262      1889       684       555
@Sumon_Early_CS_L1D     24983     27037     88890     67089     30805     31789      7883     10841      8532       150         0         0
@Sumon_Early_CPLX_L1D     78557     53666     36799      7704      2070     14749      5786      4657      4707      6496      4214      2337
@Sumon_Late_stream_L1D     91400     75500      9458       384        13         1         0         0         0         0         0         0
@Sumon_Late_CS_L1D      1650      1171       101         4         1         1         0         0         0         0         0         0
@Sumon_Late_CPLX_L1D    129777    258758     47473      1014        70         5         0         0         0         0         0         0
@sumon_overall_L2C     88429       226   2507071   2595339    941502    941502
@Sumon_Early_by_class_L2C      6509     54974     25014         0
@Sumon_Late_by_class_L2C         0       207         0         0

@Sumon_Early_by_cycle_L2C      1697      5331     10802     11797     13031     21312      4920      2460      3180      4839      2893      6167
@Sumon_Late_by_cycle_L2C       138        70        18         0         0         0         0         0         0         0         0         0
@Sumon_Early_stream_L2C       743       969       619       107         1       743       604       479       561       596       341       746
@Sumon_Early_CS_L2C       206      1148      7705     10947     12783     18192      2851       597       245       107         3       190
@Sumon_Early_CPLX_L2C       732      3072      2417       733       244      2334      1409      1249      2132      3693      2268      4731
@Sumon_Late_stream_L2C         0         0         0         0         0         0         0         0         0         0         0         0
@Sumon_Late_CS_L2C       125        65        17         0         0         0         0         0         0         0         0         0
@Sumon_Late_CPLX_L2C         0         0         0         0         0         0         0         0         0         0         0         0
DRAM PAGES: 1048576
Allocated PAGES: 13946
