
*** ChampSim Multicore Out-of-Order Simulator ***

Warmup Instructions: 10000000
Simulation Instructions: 50000000
Number of CPUs: 1
LLC sets: 2048
LLC ways: 16
Off-chip DRAM Size: 4096 MB Channels: 1 Width: 64-bit Data Rate: 6400 MT/s
CPU 0 runs traces/SPEC2017/607.cactuBSSN_s-4004B.champsimtrace.xz
.xz
CPU 0 Bimodal branch predictor
BTB has LRU replacement policy
ITLB has LRU replacement policy
DTLB has LRU replacement policy
STLB has LRU replacement policy
L1I has LRU replacement policy
IP Table Entries: 256
Initialize DRRIP state for L1D
IP_Table L2 entries: 256
Initialize DRRIP state for L2C
LLC has LRU replacement policy
Heartbeat CPU 0 instructions: 10000001 cycles: 3596287 heartbeat IPC: 2.78065 cumulative IPC: 2.78065 (Simulation time: 0 hr 14 min 56 sec) 

Warmup complete CPU 0 instructions: 10000001 cycles: 3596287 (Simulation time: 0 hr 14 min 56 sec) 

Heartbeat CPU 0 instructions: 20000002 cycles: 14547174 heartbeat IPC: 0.913168 cumulative IPC: 0.913168 (Simulation time: 0 hr 25 min 32 sec) 
Heartbeat CPU 0 instructions: 30000003 cycles: 25510810 heartbeat IPC: 0.912106 cumulative IPC: 0.912637 (Simulation time: 0 hr 36 min 19 sec) 
Heartbeat CPU 0 instructions: 40000002 cycles: 36485228 heartbeat IPC: 0.91121 cumulative IPC: 0.912161 (Simulation time: 0 hr 47 min 2 sec) 
Heartbeat CPU 0 instructions: 50000000 cycles: 47448839 heartbeat IPC: 0.912108 cumulative IPC: 0.912148 (Simulation time: 0 hr 56 min 34 sec) 
Heartbeat CPU 0 instructions: 60000002 cycles: 58417886 heartbeat IPC: 0.911656 cumulative IPC: 0.912049 (Simulation time: 1 hr 3 min 30 sec) 
Finished CPU 0 instructions: 50000001 cycles: 54821599 cumulative IPC: 0.912049 (Simulation time: 1 hr 3 min 30 sec) 

ChampSim completed all CPUs

Region of Interest Statistics

CPU 0 cumulative IPC: 0.912049 instructions: 50000001 cycles: 54821599
ITLB TOTAL     ACCESS:    6966325  HIT:    6966325  MISS:          0  HIT %:        100  MISS %:          0   MPKI: 0
ITLB LOAD TRANSLATION ACCESS:    6966325  HIT:    6966325  MISS:          0  HIT %:        100  MISS %:          0   MPKI: 0
ITLB PREFETCH  REQUESTED:          0  ISSUED:          0  USEFUL:          0  USELESS:          0
ITLB USEFUL LOAD PREFETCHES:          0 PREFETCH ISSUED TO LOWER LEVEL:          0  ACCURACY: -nan
ITLB TIMELY PREFETCHES:          0 LATE PREFETCHES: 0 DROPPED PREFETCHES: 0
ITLB PREFETCHES SAME FILL-ORIGIN LEVEL: 0 DIFFERENT FILL-ORIGIN LEVEL: 0
ITLB AVERAGE MISS LATENCY: -nan cycles
ITLB RQ	ACCESS:    8469401	FORWARD:          0	MERGED:    1503077	TO_CACHE:    6966324

DTLB TOTAL     ACCESS:   14162277  HIT:   12228284  MISS:    1933993  HIT %:    86.3441  MISS %:    13.6559   MPKI: 38.6799
DTLB LOAD TRANSLATION ACCESS:   14162277  HIT:   12228284  MISS:    1933993  HIT %:    86.3441  MISS %:    13.6559   MPKI: 38.6799
DTLB PREFETCH  REQUESTED:          0  ISSUED:          0  USEFUL:          0  USELESS:          0
DTLB USEFUL LOAD PREFETCHES:          0 PREFETCH ISSUED TO LOWER LEVEL:          0  ACCURACY: -nan
DTLB TIMELY PREFETCHES:          0 LATE PREFETCHES: 0 DROPPED PREFETCHES: 0
DTLB PREFETCHES SAME FILL-ORIGIN LEVEL: 0 DIFFERENT FILL-ORIGIN LEVEL: 0
DTLB AVERAGE MISS LATENCY: 9.93149 cycles
DTLB RQ	ACCESS:   19794810	FORWARD:          0	MERGED:    5420630	TO_CACHE:   14374180

STLB TOTAL     ACCESS:    1939926  HIT:    1937865  MISS:       2061  HIT %:    99.8938  MISS %:   0.106241   MPKI: 0.04122
STLB LOAD TRANSLATION ACCESS:    1933993  HIT:    1931932  MISS:       2061  HIT %:    99.8934  MISS %:   0.106567   MPKI: 0.04122
STLB TRANSLATION FROM L1D PREFETCHER ACCESS:       5933  HIT:       5933  MISS:          0  HIT %:        100  MISS %:          0   MPKI: 0
STLB PREFETCH  REQUESTED:          0  ISSUED:          0  USEFUL:          0  USELESS:          0
STLB USEFUL LOAD PREFETCHES:          0 PREFETCH ISSUED TO LOWER LEVEL:          0  ACCURACY: -nan
STLB TIMELY PREFETCHES:          0 LATE PREFETCHES: 0 DROPPED PREFETCHES: 0
STLB PREFETCHES SAME FILL-ORIGIN LEVEL: 0 DIFFERENT FILL-ORIGIN LEVEL: 0
STLB AVERAGE MISS LATENCY: 569.789 cycles
STLB RQ	ACCESS:    1939940	FORWARD:          0	MERGED:         13	TO_CACHE:    1939927

STLB Hit, L1D data hit: 0
STLB Hit, L2C data hit: 0
STLB Hit, LLC data hit: 0
STLB Hit, LLC data miss: 0
STLB STLB hints to L2: 0
L1D TOTAL     ACCESS:   19716063  HIT:   16297314  MISS:    3418749  HIT %:    82.6601  MISS %:    17.3399   MPKI: 68.375
L1D LOAD      ACCESS:   15693309  HIT:   12539560  MISS:    3153749  HIT %:    79.9039  MISS %:    20.0961   MPKI: 63.075
L1D RFO       ACCESS:    4016808  HIT:    3757751  MISS:     259057  HIT %:    93.5507  MISS %:    6.44932   MPKI: 5.18114
L1D PREFETCH  ACCESS:       5946  HIT:          3  MISS:       5943  HIT %:  0.0504541  MISS %:    99.9495   MPKI: 0.11886
L1D PREFETCH  REQUESTED:      11892  ISSUED:      11892  USEFUL:        944  USELESS:       5001
L1D USEFUL LOAD PREFETCHES:        944 PREFETCH ISSUED TO LOWER LEVEL:       8255  ACCURACY: 11.4355
L1D TIMELY PREFETCHES:        944 LATE PREFETCHES: 0 DROPPED PREFETCHES: 0
L1D PREFETCHES SAME FILL-ORIGIN LEVEL: 8255 DIFFERENT FILL-ORIGIN LEVEL: 0
L1D AVERAGE MISS LATENCY: 23.9898 cycles
L1D RQ	ACCESS:   19468132	FORWARD:          0	MERGED:    3689780	TO_CACHE:   15769037
L1D WQ	ACCESS:    4053036	FORWARD:       9315	MERGED:      27263	TO_CACHE:    4025773
L1D PQ	ACCESS:       5946	FORWARD:          0	MERGED:          0	TO_CACHE:       5946

L1D UNIQUE REGIONS ACCESSED: 0
L1D REGIONS CONFLICTS: 0
L1D Cross Page Prefetch Requests: 0
L1D Same Page Prefetch Requests: 8102
L1D ROI Sum of L1D PQ occupancy: 86546
L1D PREFETCHES PUSHED FROM L2C: 0
L1I TOTAL     ACCESS:    7804527  HIT:    6504526  MISS:    1300001  HIT %:     83.343  MISS %:     16.657   MPKI: 26
L1I LOAD      ACCESS:    7804527  HIT:    6504526  MISS:    1300001  HIT %:     83.343  MISS %:     16.657   MPKI: 26
L1I PREFETCH  REQUESTED:          0  ISSUED:          0  USEFUL:          0  USELESS:          0
L1I USEFUL LOAD PREFETCHES:          0 PREFETCH ISSUED TO LOWER LEVEL:          0  ACCURACY: -nan
L1I TIMELY PREFETCHES:          0 LATE PREFETCHES: 0 DROPPED PREFETCHES: 0
L1I PREFETCHES SAME FILL-ORIGIN LEVEL: 0 DIFFERENT FILL-ORIGIN LEVEL: 0
L1I AVERAGE MISS LATENCY: 14.0751 cycles
L1I RQ	ACCESS:   11858195	FORWARD:          0	MERGED:    3388794	TO_CACHE:    8469401

BTB TOTAL     ACCESS:     281774  HIT:     263574  MISS:      18200  HIT %:    93.5409  MISS %:    6.45908   MPKI: 0.364
BTB BRANCH_DIRECT_JUMP	ACCESS:      54526  HIT:      54521  MISS:          5
BTB BRANCH_INDIRECT	ACCESS:       9088  HIT:       9087  MISS:          1
BTB BRANCH_CONDITIONAL	ACCESS:     109108  HIT:     109097  MISS:         11
BTB BRANCH_DIRECT_CALL	ACCESS:      54526  HIT:      54521  MISS:          5
BTB BRANCH_INDIRECT_CALL	ACCESS:          0  HIT:          0  MISS:          0
BTB BRANCH_RETURN	ACCESS:      54526  HIT:      36348  MISS:      18178
BTB BRANCH_OTHER ACCESS:          0  HIT:          0  MISS:          0

L2C TOTAL     ACCESS:    7046069  HIT:    6796033  MISS:     250036  HIT %:    96.4514  MISS %:    3.54859   MPKI: 5.00072
L2C LOAD      ACCESS:    4453543  HIT:    4393765  MISS:      59778  HIT %:    98.6577  MISS %:    1.34226   MPKI: 1.19556
L2C DATA LOAD MPKI: 1.18692
L2C INSTRUCTION LOAD MPKI: 0.00864
L2C RFO       ACCESS:     258874  HIT:     227338  MISS:      31536  HIT %:     87.818  MISS %:     12.182   MPKI: 0.63072
L2C PREFETCH  ACCESS:    2066486  HIT:    1911448  MISS:     155038  HIT %:    92.4975  MISS %:    7.50249   MPKI: 3.10076
L2C DATA PREFETCH MPKI: 3.10076
L2C INSTRUCTION PREFETCH MPKI: 0
L2C WRITEBACK ACCESS:     264034  HIT:     263453  MISS:        581  HIT %:      99.78  MISS %:   0.220047   MPKI: 0.01162
L2C LOAD TRANSLATION ACCESS:       3132  HIT:         29  MISS:       3103  HIT %:   0.925926  MISS %:    99.0741   MPKI: 0.06206
L2C PREFETCH  REQUESTED:    2081862  ISSUED:    2060945  USEFUL:     148790  USELESS:       6237
L2C USEFUL LOAD PREFETCHES:     148790 PREFETCH ISSUED TO LOWER LEVEL:     155049  ACCURACY: 95.9632
L2C TIMELY PREFETCHES:     148790 LATE PREFETCHES: 11 DROPPED PREFETCHES: 0
L2C PREFETCHES SAME FILL-ORIGIN LEVEL: 152114 DIFFERENT FILL-ORIGIN LEVEL: 0
L2C AVERAGE MISS LATENCY: 187.333 cycles
L2C RQ	ACCESS:    4715943	FORWARD:          0	MERGED:          0	TO_CACHE:    4715553
L2C WQ	ACCESS:     264048	FORWARD:        395	MERGED:         14	TO_CACHE:     264034
L2C PQ	ACCESS:    2066888	FORWARD:          0	MERGED:        250	TO_CACHE:    2066633

L2C Instructions Evicting Data 403
L2C Translations Evicting Data 3081
L2C Data Evicting Data 242470
L2C Instructions Evicting Instructions 28
L2C Translations Evicting Instructions 2
L2C Data Evicting Instructions 397
L2C Instructions Evicting Translations 1
L2C Translations Evicting Translations 20
L2C Data Evicting Translations 3053
L2C Dense regions hint from L2: 0
PSCL5 TOTAL     ACCESS:       2061  HIT:       2061  MISS:          0  HIT %:        100  MISS %:          0   MPKI: 0
PSCL5 LOAD TRANSLATION ACCESS:       2061  HIT:       2061  MISS:          0  HIT %:        100  MISS %:          0   MPKI: 0
PSCL5 PREFETCH  REQUESTED:          0  ISSUED:          0  USEFUL:          0  USELESS:          0
PSCL5 USEFUL LOAD PREFETCHES:          0 PREFETCH ISSUED TO LOWER LEVEL:          0  ACCURACY: -nan
PSCL5 TIMELY PREFETCHES:          0 LATE PREFETCHES: 0 DROPPED PREFETCHES: 0
PSCL5 PREFETCHES SAME FILL-ORIGIN LEVEL: 0 DIFFERENT FILL-ORIGIN LEVEL: 0

PSCL4 TOTAL     ACCESS:       2061  HIT:       2061  MISS:          0  HIT %:        100  MISS %:          0   MPKI: 0
PSCL4 LOAD TRANSLATION ACCESS:       2061  HIT:       2061  MISS:          0  HIT %:        100  MISS %:          0   MPKI: 0
PSCL4 PREFETCH  REQUESTED:          0  ISSUED:          0  USEFUL:          0  USELESS:          0
PSCL4 USEFUL LOAD PREFETCHES:          0 PREFETCH ISSUED TO LOWER LEVEL:          0  ACCURACY: -nan
PSCL4 TIMELY PREFETCHES:          0 LATE PREFETCHES: 0 DROPPED PREFETCHES: 0
PSCL4 PREFETCHES SAME FILL-ORIGIN LEVEL: 0 DIFFERENT FILL-ORIGIN LEVEL: 0

PSCL3 TOTAL     ACCESS:       2061  HIT:       2061  MISS:          0  HIT %:        100  MISS %:          0   MPKI: 0
PSCL3 LOAD TRANSLATION ACCESS:       2061  HIT:       2061  MISS:          0  HIT %:        100  MISS %:          0   MPKI: 0
PSCL3 PREFETCH  REQUESTED:          0  ISSUED:          0  USEFUL:          0  USELESS:          0
PSCL3 USEFUL LOAD PREFETCHES:          0 PREFETCH ISSUED TO LOWER LEVEL:          0  ACCURACY: -nan
PSCL3 TIMELY PREFETCHES:          0 LATE PREFETCHES: 0 DROPPED PREFETCHES: 0
PSCL3 PREFETCHES SAME FILL-ORIGIN LEVEL: 0 DIFFERENT FILL-ORIGIN LEVEL: 0

PSCL2 TOTAL     ACCESS:       2061  HIT:        989  MISS:       1072  HIT %:    47.9864  MISS %:    52.0136   MPKI: 0.02144
PSCL2 LOAD TRANSLATION ACCESS:       2061  HIT:        989  MISS:       1072  HIT %:    47.9864  MISS %:    52.0136   MPKI: 0.02144
PSCL2 PREFETCH  REQUESTED:          0  ISSUED:          0  USEFUL:          0  USELESS:          0
PSCL2 USEFUL LOAD PREFETCHES:          0 PREFETCH ISSUED TO LOWER LEVEL:          0  ACCURACY: -nan
PSCL2 TIMELY PREFETCHES:          0 LATE PREFETCHES: 0 DROPPED PREFETCHES: 0
PSCL2 PREFETCHES SAME FILL-ORIGIN LEVEL: 0 DIFFERENT FILL-ORIGIN LEVEL: 0

LLC TOTAL     ACCESS:     281260  HIT:     150089  MISS:     131171  HIT %:    53.3631  MISS %:    46.6369   MPKI: 2.62342
LLC LOAD      ACCESS:      59768  HIT:      31785  MISS:      27983  HIT %:    53.1806  MISS %:    46.8194   MPKI: 0.55966
LLC RFO       ACCESS:      31261  HIT:       1836  MISS:      29425  HIT %:    5.87313  MISS %:    94.1269   MPKI: 0.5885
LLC PREFETCH  ACCESS:     155049  HIT:      81645  MISS:      73404  HIT %:    52.6575  MISS %:    47.3425   MPKI: 1.46808
LLC WRITEBACK ACCESS:      32079  HIT:      31982  MISS:         97  HIT %:    99.6976  MISS %:   0.302379   MPKI: 0.00194
LLC LOAD TRANSLATION ACCESS:       3103  HIT:       2841  MISS:        262  HIT %:    91.5566  MISS %:    8.44344   MPKI: 0.00524
LLC PREFETCH  REQUESTED:          0  ISSUED:          0  USEFUL:      14617  USELESS:      59229
LLC USEFUL LOAD PREFETCHES:      14617 PREFETCH ISSUED TO LOWER LEVEL:      73404  ACCURACY: 19.9131
LLC TIMELY PREFETCHES:      14617 LATE PREFETCHES: 0 DROPPED PREFETCHES: 0
LLC PREFETCHES SAME FILL-ORIGIN LEVEL: 0 DIFFERENT FILL-ORIGIN LEVEL: 0
LLC AVERAGE MISS LATENCY: 298.743 cycles
LLC RQ	ACCESS:      94406	FORWARD:          0	MERGED:          0	TO_CACHE:      94132
LLC WQ	ACCESS:      32079	FORWARD:        274	MERGED:          0	TO_CACHE:      32079
LLC PQ	ACCESS:     155049	FORWARD:          0	MERGED:          0	TO_CACHE:     155049

LLC Dense regions hint to LLC: 0

RAW hits: 124679
Loads Generated: 19592783
Loads sent to L1D: 19468132
Stores Generated: 4053162
Stores sent to L1D: 4053156
Major fault: 0 Minor fault: 2746
Allocated PAGES: 2746

stream: 
stream:times selected: 8964
stream:pref_filled: 6814
stream:pref_useful: 1108
stream:pref_late: 1
stream:misses: 84
stream:misses_by_poll: 0

CS: 
CS:times selected: 4438
CS:pref_filled: 379
CS:pref_useful: 68
CS:pref_late: 0
CS:misses: 1715
CS:misses_by_poll: 0

CPLX: 
CPLX:times selected: 7180
CPLX:pref_filled: 365
CPLX:pref_useful: 42
CPLX:pref_late: 0
CPLX:misses: 29212
CPLX:misses_by_poll: 0

NL_L1: 
NL:times selected: 5
NL:pref_filled: 4
NL:pref_useful: 1
NL:pref_late: 0
NL:misses: 8
NL:misses_by_poll: 0

total selections: 20587
total_filled: 5943
total_useful: 944
total_late: 1
total_polluted: 0
total_misses_after_warmup: 3229476
conflicts: 7765624
Degree Incremented Times: 0
Degree Decremented Times: 246142

L1 IP Table Write Accesses: 7898344
L1 IP Table Read Accesses: 132720
L1 RST Write Accesses: 6164
L1 RST Read Accesses: 12328
L1 CSPT Write Accesses: 6164
L1 CSPT Read Accesses: 12091
L1 RR Filter Tag Write Accesses: 5946
L1 RR Filter Tag Read Accesses: 493738
L1 IP Table Tag Write Accesses: 15769036
L1 IP Table Tag Read Accesses: 15769036
L1 RST Tag Write Accesses: 0
L1 RST Tag Read Accesses: 54617
L1 RR Filter Write Accesses: 0
L1 RR Filter Read Accesses: 15509
test: 1054
L2 IP Table Read Accesses: 4207053
L2 IP Table Write Accesses: 4932580
L2 IP Table Tag Read Accesses: 3159177
L2 IP Table Tag Write Accesses: 3159177

DRAM Statistics
 CHANNEL 0
 RQ ROW_BUFFER_HIT:      71159  ROW_BUFFER_MISS:      59915
 DBUS_CONGESTED:        136
 WQ ROW_BUFFER_HIT:      10977  ROW_BUFFER_MISS:      17859  FULL:          0

 AVG_CONGESTED_CYCLE: 4
 All warmup complete: 2
Channel 0 Bank busy for read cycles: 0
Channel 0 Bank busy for write cycles: 0
Channel 0
Rank 0
0banks busy for read cycles: 44958000
0banks busy for write cycles: 10739
1banks busy for read cycles: 4685516
1banks busy for write cycles: 1373410
2banks busy for read cycles: 1486499
2banks busy for write cycles: 302825
3banks busy for read cycles: 733413
3banks busy for write cycles: 217839
4banks busy for read cycles: 318496
4banks busy for write cycles: 199453
5banks busy for read cycles: 90838
5banks busy for write cycles: 142105
6banks busy for read cycles: 73710
6banks busy for write cycles: 86176
7banks busy for read cycles: 73413
7banks busy for write cycles: 50060
8banks busy for read cycles: 400
8banks busy for write cycles: 18708

CPU 0 Branch Prediction Accuracy: 99.9877% MPKI: 0.0011 Average ROB Occupancy at Mispredict: 35.0727
Branch types
NOT_BRANCH: 49554298 99.1086%
BRANCH_DIRECT_JUMP: 54526 0.109052%
BRANCH_INDIRECT: 9088 0.018176%
BRANCH_CONDITIONAL: 272741 0.545482%
BRANCH_DIRECT_CALL: 54526 0.109052%
BRANCH_INDIRECT_CALL: 0 0%
BRANCH_RETURN: 54526 0.109052%
BRANCH_OTHER: 0 0%

@sumon_overall_L1D       944         0      5001      5943     11892     11892
@Sumon_Early_by_class_L1D       928         2         4         0
@Sumon_Late_by_class_L1D         0         0         0         0

@Sumon_Early_by_cycle_L1D         6         0         0         0         0         0         0         5        41       871        21         0
@Sumon_Late_by_cycle_L1D         0         0         0         0         0         0         0         0         0         0         0         0
@Sumon_Early_stream_L1D         6         0         0         0         0         0         0         5        40       857        20         0
@Sumon_Early_CS_L1D         0         0         0         0         0         0         0         0         0         2         0         0
@Sumon_Early_CPLX_L1D         0         0         0         0         0         0         0         0         0         4         0         0
@Sumon_Late_stream_L1D         0         0         0         0         0         0         0         0         0         0         0         0
@Sumon_Late_CS_L1D         0         0         0         0         0         0         0         0         0         0         0         0
@Sumon_Late_CPLX_L1D         0         0         0         0         0         0         0         0         0         0         0         0
@sumon_overall_L2C    148790        11      6237    155038   2060945   2081862
@Sumon_Early_by_class_L2C      2693        13         1         0
@Sumon_Late_by_class_L2C         0         0         0         0

@Sumon_Early_by_cycle_L2C        27         3         1         1         1         2         0       901      6898    136437      4425        94
@Sumon_Late_by_cycle_L2C        11         0         0         0         0         0         0         0         0         0         0         0
@Sumon_Early_stream_L2C         0         0         0         0         0         0         0         2        87      2089       507         8
@Sumon_Early_CS_L2C         0         0         0         0         0         0         0         0         0        12         1         0
@Sumon_Early_CPLX_L2C         0         0         0         0         0         0         0         0         0         1         0         0
@Sumon_Late_stream_L2C         0         0         0         0         0         0         0         0         0         0         0         0
@Sumon_Late_CS_L2C         0         0         0         0         0         0         0         0         0         0         0         0
@Sumon_Late_CPLX_L2C         0         0         0         0         0         0         0         0         0         0         0         0
DRAM PAGES: 1048576
Allocated PAGES: 2746
