
*** ChampSim Multicore Out-of-Order Simulator ***

Warmup Instructions: 10000000
Simulation Instructions: 50000000
Number of CPUs: 1
LLC sets: 2048
LLC ways: 16
Off-chip DRAM Size: 4096 MB Channels: 1 Width: 64-bit Data Rate: 6400 MT/s
CPU 0 runs traces/SPEC2017/619.lbm_s-3766B.champsimtrace.xz
.xz
CPU 0 Bimodal branch predictor
BTB has LRU replacement policy
ITLB has LRU replacement policy
DTLB has LRU replacement policy
STLB has LRU replacement policy
L1I has LRU replacement policy
IP Table Entries: 256
Initialize DRRIP state for L1D
IP_Table L2 entries: 256
Initialize DRRIP state for L2C
LLC has LRU replacement policy
Heartbeat CPU 0 instructions: 10000000 cycles: 2733321 heartbeat IPC: 3.65855 cumulative IPC: 3.65855 (Simulation time: 0 hr 9 min 27 sec) 

Warmup complete CPU 0 instructions: 10000004 cycles: 2733322 (Simulation time: 0 hr 9 min 27 sec) 

Heartbeat CPU 0 instructions: 20000000 cycles: 12864711 heartbeat IPC: 0.987031 cumulative IPC: 0.987031 (Simulation time: 0 hr 18 min 22 sec) 
Heartbeat CPU 0 instructions: 30000002 cycles: 22904320 heartbeat IPC: 0.996055 cumulative IPC: 0.991522 (Simulation time: 0 hr 27 min 42 sec) 
Heartbeat CPU 0 instructions: 40000002 cycles: 33084115 heartbeat IPC: 0.982338 cumulative IPC: 0.988442 (Simulation time: 0 hr 37 min 14 sec) 
Heartbeat CPU 0 instructions: 50000001 cycles: 43298470 heartbeat IPC: 0.979014 cumulative IPC: 0.986068 (Simulation time: 0 hr 46 min 49 sec) 
Heartbeat CPU 0 instructions: 60000000 cycles: 53306319 heartbeat IPC: 0.999216 cumulative IPC: 0.98867 (Simulation time: 0 hr 55 min 12 sec) 
Finished CPU 0 instructions: 50000000 cycles: 50573015 cumulative IPC: 0.98867 (Simulation time: 0 hr 55 min 12 sec) 

ChampSim completed all CPUs

Region of Interest Statistics

CPU 0 cumulative IPC: 0.98867 instructions: 50000000 cycles: 50573015
ITLB TOTAL     ACCESS:    6467405  HIT:    6467405  MISS:          0  HIT %:        100  MISS %:          0   MPKI: 0
ITLB LOAD TRANSLATION ACCESS:    6467405  HIT:    6467405  MISS:          0  HIT %:        100  MISS %:          0   MPKI: 0
ITLB PREFETCH  REQUESTED:          0  ISSUED:          0  USEFUL:          0  USELESS:          0
ITLB USEFUL LOAD PREFETCHES:          0 PREFETCH ISSUED TO LOWER LEVEL:          0  ACCURACY: -nan
ITLB TIMELY PREFETCHES:          0 LATE PREFETCHES: 0 DROPPED PREFETCHES: 0
ITLB PREFETCHES SAME FILL-ORIGIN LEVEL: 0 DIFFERENT FILL-ORIGIN LEVEL: 0
ITLB AVERAGE MISS LATENCY: -nan cycles
ITLB RQ	ACCESS:    8481814	FORWARD:          0	MERGED:    2014409	TO_CACHE:    6467405

DTLB TOTAL     ACCESS:    9265687  HIT:    9234584  MISS:      31103  HIT %:    99.6643  MISS %:   0.335679   MPKI: 0.62206
DTLB LOAD TRANSLATION ACCESS:    9265687  HIT:    9234584  MISS:      31103  HIT %:    99.6643  MISS %:   0.335679   MPKI: 0.62206
DTLB PREFETCH  REQUESTED:          0  ISSUED:          0  USEFUL:          0  USELESS:          0
DTLB USEFUL LOAD PREFETCHES:          0 PREFETCH ISSUED TO LOWER LEVEL:          0  ACCURACY: -nan
DTLB TIMELY PREFETCHES:          0 LATE PREFETCHES: 0 DROPPED PREFETCHES: 0
DTLB PREFETCHES SAME FILL-ORIGIN LEVEL: 0 DIFFERENT FILL-ORIGIN LEVEL: 0
DTLB AVERAGE MISS LATENCY: 99.7886 cycles
DTLB RQ	ACCESS:   13791399	FORWARD:          0	MERGED:    4521749	TO_CACHE:    9269650

STLB TOTAL     ACCESS:     230665  HIT:     213787  MISS:      16878  HIT %:    92.6829  MISS %:     7.3171   MPKI: 0.33756
STLB LOAD TRANSLATION ACCESS:      31103  HIT:      14225  MISS:      16878  HIT %:    45.7351  MISS %:    54.2649   MPKI: 0.33756
STLB TRANSLATION FROM L1D PREFETCHER ACCESS:     199562  HIT:     199562  MISS:          0  HIT %:        100  MISS %:          0   MPKI: 0
STLB PREFETCH  REQUESTED:          0  ISSUED:          0  USEFUL:          0  USELESS:          0
STLB USEFUL LOAD PREFETCHES:          0 PREFETCH ISSUED TO LOWER LEVEL:          0  ACCURACY: -nan
STLB TIMELY PREFETCHES:          0 LATE PREFETCHES: 0 DROPPED PREFETCHES: 0
STLB PREFETCHES SAME FILL-ORIGIN LEVEL: 0 DIFFERENT FILL-ORIGIN LEVEL: 0
STLB AVERAGE MISS LATENCY: 166.276 cycles
STLB RQ	ACCESS:     309659	FORWARD:          0	MERGED:      78994	TO_CACHE:     230665

STLB Hit, L1D data hit: 0
STLB Hit, L2C data hit: 0
STLB Hit, LLC data hit: 0
STLB Hit, LLC data miss: 0
STLB STLB hints to L2: 0
L1D TOTAL     ACCESS:   14035915  HIT:   12068127  MISS:    1967788  HIT %:    85.9803  MISS %:    14.0197   MPKI: 39.3558
L1D LOAD      ACCESS:    6361155  HIT:    6259459  MISS:     101696  HIT %:    98.4013  MISS %:     1.5987   MPKI: 2.03392
L1D RFO       ACCESS:    7401435  HIT:    5796032  MISS:    1605403  HIT %:    78.3096  MISS %:    21.6904   MPKI: 32.1081
L1D PREFETCH  ACCESS:     273325  HIT:      12636  MISS:     260689  HIT %:    4.62307  MISS %:    95.3769   MPKI: 5.21378
L1D PREFETCH  REQUESTED:     557506  ISSUED:     557112  USEFUL:     171176  USELESS:      89515
L1D USEFUL LOAD PREFETCHES:     171176 PREFETCH ISSUED TO LOWER LEVEL:     261809  ACCURACY: 65.382
L1D TIMELY PREFETCHES:     171176 LATE PREFETCHES: 1111 DROPPED PREFETCHES: 0
L1D PREFETCHES SAME FILL-ORIGIN LEVEL: 261809 DIFFERENT FILL-ORIGIN LEVEL: 0
L1D AVERAGE MISS LATENCY: 15205.3 cycles
L1D RQ	ACCESS:   11412324	FORWARD:          0	MERGED:    4836517	TO_CACHE:    6387458
L1D WQ	ACCESS:    7443211	FORWARD:     188349	MERGED:      39270	TO_CACHE:    7403941
L1D PQ	ACCESS:     278556	FORWARD:          0	MERGED:          0	TO_CACHE:     278556

L1D UNIQUE REGIONS ACCESSED: 0
L1D REGIONS CONFLICTS: 0
L1D Cross Page Prefetch Requests: 0
L1D Same Page Prefetch Requests: 335442
L1D ROI Sum of L1D PQ occupancy: 13791975
L1D PREFETCHES PUSHED FROM L2C: 0
L1I TOTAL     ACCESS:    8481812  HIT:    8481812  MISS:          0  HIT %:        100  MISS %:          0   MPKI: 0
L1I LOAD      ACCESS:    8481812  HIT:    8481812  MISS:          0  HIT %:        100  MISS %:          0   MPKI: 0
L1I PREFETCH  REQUESTED:          0  ISSUED:          0  USEFUL:          0  USELESS:          0
L1I USEFUL LOAD PREFETCHES:          0 PREFETCH ISSUED TO LOWER LEVEL:          0  ACCURACY: -nan
L1I TIMELY PREFETCHES:          0 LATE PREFETCHES: 0 DROPPED PREFETCHES: 0
L1I PREFETCHES SAME FILL-ORIGIN LEVEL: 0 DIFFERENT FILL-ORIGIN LEVEL: 0
L1I AVERAGE MISS LATENCY: -nan cycles
L1I RQ	ACCESS:   11883933	FORWARD:          0	MERGED:    3402119	TO_CACHE:    8481814

BTB TOTAL     ACCESS:     535381  HIT:     535375  MISS:          6  HIT %:    99.9989  MISS %:  0.0011207   MPKI: 0.00012
BTB BRANCH_DIRECT_JUMP	ACCESS:       2268  HIT:       2267  MISS:          1
BTB BRANCH_INDIRECT	ACCESS:          0  HIT:          0  MISS:          0
BTB BRANCH_CONDITIONAL	ACCESS:     533113  HIT:     533108  MISS:          5
BTB BRANCH_DIRECT_CALL	ACCESS:          0  HIT:          0  MISS:          0
BTB BRANCH_INDIRECT_CALL	ACCESS:          0  HIT:          0  MISS:          0
BTB BRANCH_RETURN	ACCESS:          0  HIT:          0  MISS:          0
BTB BRANCH_OTHER ACCESS:          0  HIT:          0  MISS:          0

L2C TOTAL     ACCESS:    3696732  HIT:    2543507  MISS:    1153225  HIT %:    68.8042  MISS %:    31.1958   MPKI: 23.0645
L2C LOAD      ACCESS:     100585  HIT:      91540  MISS:       9045  HIT %:    91.0076  MISS %:    8.99239   MPKI: 0.1809
L2C DATA LOAD MPKI: 0.1809
L2C INSTRUCTION LOAD MPKI: 0
L2C RFO       ACCESS:    1604616  HIT:     733152  MISS:     871464  HIT %:    45.6902  MISS %:    54.3098   MPKI: 17.4293
L2C PREFETCH  ACCESS:     369255  HIT:     108019  MISS:     261236  HIT %:    29.2532  MISS %:    70.7468   MPKI: 5.22472
L2C DATA PREFETCH MPKI: 5.22472
L2C INSTRUCTION PREFETCH MPKI: 0
L2C WRITEBACK ACCESS:    1605397  HIT:    1596070  MISS:       9327  HIT %:     99.419  MISS %:   0.580978   MPKI: 0.18654
L2C LOAD TRANSLATION ACCESS:      16879  HIT:      14726  MISS:       2153  HIT %:    87.2445  MISS %:    12.7555   MPKI: 0.04306
L2C PREFETCH  REQUESTED:     202067  ISSUED:     202066  USEFUL:      88669  USELESS:     172754
L2C USEFUL LOAD PREFETCHES:      88669 PREFETCH ISSUED TO LOWER LEVEL:     261393  ACCURACY: 33.9217
L2C TIMELY PREFETCHES:      88669 LATE PREFETCHES: 157 DROPPED PREFETCHES: 0
L2C PREFETCHES SAME FILL-ORIGIN LEVEL: 18452 DIFFERENT FILL-ORIGIN LEVEL: 0
L2C AVERAGE MISS LATENCY: 382.363 cycles
L2C RQ	ACCESS:    1722872	FORWARD:          0	MERGED:          0	TO_CACHE:    1722086
L2C WQ	ACCESS:    1605398	FORWARD:        786	MERGED:          0	TO_CACHE:    1605398
L2C PQ	ACCESS:     463866	FORWARD:          0	MERGED:      85247	TO_CACHE:     378619

L2C Instructions Evicting Data 0
L2C Translations Evicting Data 2153
L2C Data Evicting Data 1139623
L2C Instructions Evicting Instructions 0
L2C Translations Evicting Instructions 0
L2C Data Evicting Instructions 0
L2C Instructions Evicting Translations 0
L2C Translations Evicting Translations 0
L2C Data Evicting Translations 2122
L2C Dense regions hint from L2: 0
PSCL5 TOTAL     ACCESS:      16878  HIT:      16878  MISS:          0  HIT %:        100  MISS %:          0   MPKI: 0
PSCL5 LOAD TRANSLATION ACCESS:      16878  HIT:      16878  MISS:          0  HIT %:        100  MISS %:          0   MPKI: 0
PSCL5 PREFETCH  REQUESTED:          0  ISSUED:          0  USEFUL:          0  USELESS:          0
PSCL5 USEFUL LOAD PREFETCHES:          0 PREFETCH ISSUED TO LOWER LEVEL:          0  ACCURACY: -nan
PSCL5 TIMELY PREFETCHES:          0 LATE PREFETCHES: 0 DROPPED PREFETCHES: 0
PSCL5 PREFETCHES SAME FILL-ORIGIN LEVEL: 0 DIFFERENT FILL-ORIGIN LEVEL: 0

PSCL4 TOTAL     ACCESS:      16878  HIT:      16878  MISS:          0  HIT %:        100  MISS %:          0   MPKI: 0
PSCL4 LOAD TRANSLATION ACCESS:      16878  HIT:      16878  MISS:          0  HIT %:        100  MISS %:          0   MPKI: 0
PSCL4 PREFETCH  REQUESTED:          0  ISSUED:          0  USEFUL:          0  USELESS:          0
PSCL4 USEFUL LOAD PREFETCHES:          0 PREFETCH ISSUED TO LOWER LEVEL:          0  ACCURACY: -nan
PSCL4 TIMELY PREFETCHES:          0 LATE PREFETCHES: 0 DROPPED PREFETCHES: 0
PSCL4 PREFETCHES SAME FILL-ORIGIN LEVEL: 0 DIFFERENT FILL-ORIGIN LEVEL: 0

PSCL3 TOTAL     ACCESS:      16878  HIT:      16878  MISS:          0  HIT %:        100  MISS %:          0   MPKI: 0
PSCL3 LOAD TRANSLATION ACCESS:      16878  HIT:      16878  MISS:          0  HIT %:        100  MISS %:          0   MPKI: 0
PSCL3 PREFETCH  REQUESTED:          0  ISSUED:          0  USEFUL:          0  USELESS:          0
PSCL3 USEFUL LOAD PREFETCHES:          0 PREFETCH ISSUED TO LOWER LEVEL:          0  ACCURACY: -nan
PSCL3 TIMELY PREFETCHES:          0 LATE PREFETCHES: 0 DROPPED PREFETCHES: 0
PSCL3 PREFETCHES SAME FILL-ORIGIN LEVEL: 0 DIFFERENT FILL-ORIGIN LEVEL: 0

PSCL2 TOTAL     ACCESS:      16878  HIT:      16860  MISS:         18  HIT %:    99.8934  MISS %:   0.106648   MPKI: 0.00036
PSCL2 LOAD TRANSLATION ACCESS:      16878  HIT:      16860  MISS:         18  HIT %:    99.8934  MISS %:   0.106648   MPKI: 0.00036
PSCL2 PREFETCH  REQUESTED:          0  ISSUED:          0  USEFUL:          0  USELESS:          0
PSCL2 USEFUL LOAD PREFETCHES:          0 PREFETCH ISSUED TO LOWER LEVEL:          0  ACCURACY: -nan
PSCL2 TIMELY PREFETCHES:          0 LATE PREFETCHES: 0 DROPPED PREFETCHES: 0
PSCL2 PREFETCHES SAME FILL-ORIGIN LEVEL: 0 DIFFERENT FILL-ORIGIN LEVEL: 0

LLC TOTAL     ACCESS:    2015184  HIT:     933197  MISS:    1081987  HIT %:    46.3083  MISS %:    53.6917   MPKI: 21.6397
LLC LOAD      ACCESS:       8888  HIT:        206  MISS:       8682  HIT %:    2.31773  MISS %:    97.6823   MPKI: 0.17364
LLC RFO       ACCESS:     871432  HIT:      61559  MISS:     809873  HIT %:    7.06412  MISS %:    92.9359   MPKI: 16.1975
LLC PREFETCH  ACCESS:     261393  HIT:        113  MISS:     261280  HIT %:  0.0432299  MISS %:    99.9568   MPKI: 5.2256
LLC WRITEBACK ACCESS:     871318  HIT:     871299  MISS:         19  HIT %:    99.9978  MISS %:  0.0021806   MPKI: 0.00038
LLC LOAD TRANSLATION ACCESS:       2153  HIT:         20  MISS:       2133  HIT %:   0.928936  MISS %:    99.0711   MPKI: 0.04266
LLC PREFETCH  REQUESTED:          0  ISSUED:          0  USEFUL:        203  USELESS:     262012
LLC USEFUL LOAD PREFETCHES:        203 PREFETCH ISSUED TO LOWER LEVEL:     261280  ACCURACY: 0.0776944
LLC TIMELY PREFETCHES:        203 LATE PREFETCHES: 0 DROPPED PREFETCHES: 0
LLC PREFETCHES SAME FILL-ORIGIN LEVEL: 0 DIFFERENT FILL-ORIGIN LEVEL: 0
LLC AVERAGE MISS LATENCY: 375.146 cycles
LLC RQ	ACCESS:     882510	FORWARD:          0	MERGED:          0	TO_CACHE:     882478
LLC WQ	ACCESS:     871317	FORWARD:         32	MERGED:          0	TO_CACHE:     871317
LLC PQ	ACCESS:     261393	FORWARD:          0	MERGED:          0	TO_CACHE:     261393

LLC Dense regions hint to LLC: 0

RAW hits: 261770
Loads Generated: 11674098
Loads sent to L1D: 11412324
Stores Generated: 7443187
Stores sent to L1D: 7443211
Major fault: 0 Minor fault: 13292
Allocated PAGES: 13292

stream: 
stream:times selected: 1830073
stream:pref_filled: 40442
stream:pref_useful: 34953
stream:pref_late: 539
stream:misses: 16597
stream:misses_by_poll: 0

CS: 
CS:times selected: 328707
CS:pref_filled: 200304
CS:pref_useful: 115898
CS:pref_late: 289
CS:misses: 56457
CS:misses_by_poll: 1347

CPLX: 
CPLX:times selected: 1500963
CPLX:pref_filled: 72134
CPLX:pref_useful: 54227
CPLX:pref_late: 324
CPLX:misses: 72261
CPLX:misses_by_poll: 394

NL_L1: 
NL:times selected: 388
NL:pref_filled: 13
NL:pref_useful: 7
NL:pref_late: 4
NL:misses: 11
NL:misses_by_poll: 0

total selections: 3660131
total_filled: 260689
total_useful: 171176
total_late: 1204
total_polluted: 1741
total_misses_after_warmup: 127999
conflicts: 60609
Degree Incremented Times: 41794
Degree Decremented Times: 0

L1 IP Table Write Accesses: 5518472
L1 IP Table Read Accesses: 5457863
L1 RST Write Accesses: 1482594
L1 RST Read Accesses: 2965188
L1 CSPT Write Accesses: 1482594
L1 CSPT Read Accesses: 4827163
L1 RR Filter Tag Write Accesses: 278950
L1 RR Filter Tag Read Accesses: 259832315
L1 IP Table Tag Write Accesses: 6387458
L1 IP Table Tag Read Accesses: 6387458
L1 RST Tag Write Accesses: 0
L1 RST Tag Read Accesses: 13363573
L1 RR Filter Write Accesses: 0
L1 RR Filter Read Accesses: 11801929
test: 129044
L2 IP Table Read Accesses: 692060
L2 IP Table Write Accesses: 591488
L2 IP Table Tag Read Accesses: 346039
L2 IP Table Tag Write Accesses: 346039

DRAM Statistics
 CHANNEL 0
 RQ ROW_BUFFER_HIT:      93219  ROW_BUFFER_MISS:     988749
 DBUS_CONGESTED:          1
 WQ ROW_BUFFER_HIT:     178887  ROW_BUFFER_MISS:     630014  FULL:          0

 AVG_CONGESTED_CYCLE: 5
 All warmup complete: 2
Channel 0 Bank busy for read cycles: 0
Channel 0 Bank busy for write cycles: 0
Channel 0
Rank 0
0banks busy for read cycles: 28125
0banks busy for write cycles: 0
1banks busy for read cycles: 1293419
1banks busy for write cycles: 89115
2banks busy for read cycles: 2112854
2banks busy for write cycles: 89112
3banks busy for read cycles: 3707006
3banks busy for write cycles: 89105
4banks busy for read cycles: 4349789
4banks busy for write cycles: 89102
5banks busy for read cycles: 6727575
5banks busy for write cycles: 89097
6banks busy for read cycles: 5768060
6banks busy for write cycles: 89859
7banks busy for read cycles: 5725845
7banks busy for write cycles: 911271
8banks busy for read cycles: 3184464
8banks busy for write cycles: 16229218

CPU 0 Branch Prediction Accuracy: 99.7002% MPKI: 0.0321 Average ROB Occupancy at Mispredict: 27.3022
Branch types
NOT_BRANCH: 49464288 98.9286%
BRANCH_DIRECT_JUMP: 2268 0.004536%
BRANCH_INDIRECT: 0 0%
BRANCH_CONDITIONAL: 533113 1.06623%
BRANCH_DIRECT_CALL: 0 0%
BRANCH_INDIRECT_CALL: 0 0%
BRANCH_RETURN: 0 0%
BRANCH_OTHER: 0 0%

@sumon_overall_L1D    171176      1111     89515    260689    557112    557506
@Sumon_Early_by_class_L1D     28988    101660     40527         4
@Sumon_Late_by_class_L1D       453       289       324         4

@Sumon_Early_by_cycle_L1D       625      4843      3486     14081     10478    119026     16879      1757         1         0         0         0
@Sumon_Late_by_cycle_L1D       214       329       366       123        53        26         0         0         0         0         0         0
@Sumon_Early_stream_L1D       303      4358      2293     10082      2072      9879         1         0         0         0         0         0
@Sumon_Early_CS_L1D       131       146       308       764      1325     86331     12150       505         0         0         0         0
@Sumon_Early_CPLX_L1D       190       339       885      3235      7081     22816      4728      1252         1         0         0         0
@Sumon_Late_stream_L1D        75       180       127        43        21         7         0         0         0         0         0         0
@Sumon_Late_CS_L1D        43        49       109        54        18        16         0         0         0         0         0         0
@Sumon_Late_CPLX_L1D        55       100       127        26        13         3         0         0         0         0         0         0
@sumon_overall_L2C     88669       157    172754    261236    202066    202067
@Sumon_Early_by_class_L2C      6117     73557      8984         0
@Sumon_Late_by_class_L2C       154         0         0         0

@Sumon_Early_by_cycle_L2C       113       447       389       890       297     69251     16232      1037        13         0         0         0
@Sumon_Late_by_cycle_L2C        25        34        57        21        11         9         0         0         0         0         0         0
@Sumon_Early_stream_L2C       113       437       363       770       203      4220        11         0         0         0         0         0
@Sumon_Early_CS_L2C         0         5        16        72        59     61307     11760       338         0         0         0         0
@Sumon_Early_CPLX_L2C         0         3         9        47        34      3722      4458       698        13         0         0         0
@Sumon_Late_stream_L2C        22        34        57        21        11         9         0         0         0         0         0         0
@Sumon_Late_CS_L2C         0         0         0         0         0         0         0         0         0         0         0         0
@Sumon_Late_CPLX_L2C         0         0         0         0         0         0         0         0         0         0         0         0
DRAM PAGES: 1048576
Allocated PAGES: 13292
