
*** ChampSim Multicore Out-of-Order Simulator ***

Warmup Instructions: 10000000
Simulation Instructions: 50000000
Number of CPUs: 1
LLC sets: 2048
LLC ways: 16
Off-chip DRAM Size: 4096 MB Channels: 1 Width: 64-bit Data Rate: 6400 MT/s
CPU 0 runs traces/SPEC2017/623.xalancbmk_s-10B.champsimtrace.xz
.xz
CPU 0 Bimodal branch predictor
BTB has LRU replacement policy
ITLB has LRU replacement policy
DTLB has LRU replacement policy
STLB has LRU replacement policy
L1I has LRU replacement policy
IP Table Entries: 256
Initialize DRRIP state for L1D
IP_Table L2 entries: 256
Initialize DRRIP state for L2C
LLC has LRU replacement policy
Heartbeat CPU 0 instructions: 10000003 cycles: 3121386 heartbeat IPC: 3.20371 cumulative IPC: 3.20371 (Simulation time: 0 hr 11 min 23 sec) 

Warmup complete CPU 0 instructions: 10000003 cycles: 3121386 (Simulation time: 0 hr 11 min 23 sec) 

Heartbeat CPU 0 instructions: 20000000 cycles: 41917515 heartbeat IPC: 0.257758 cumulative IPC: 0.257758 (Simulation time: 0 hr 23 min 6 sec) 
Heartbeat CPU 0 instructions: 30000001 cycles: 80439154 heartbeat IPC: 0.259594 cumulative IPC: 0.258673 (Simulation time: 0 hr 35 min 10 sec) 
Heartbeat CPU 0 instructions: 40000000 cycles: 116472448 heartbeat IPC: 0.277521 cumulative IPC: 0.264664 (Simulation time: 0 hr 46 min 45 sec) 
Heartbeat CPU 0 instructions: 50000000 cycles: 158059315 heartbeat IPC: 0.240461 cumulative IPC: 0.258168 (Simulation time: 0 hr 57 min 43 sec) 
Heartbeat CPU 0 instructions: 60000001 cycles: 196404176 heartbeat IPC: 0.260791 cumulative IPC: 0.258688 (Simulation time: 1 hr 4 min 33 sec) 
Finished CPU 0 instructions: 50000002 cycles: 193282791 cumulative IPC: 0.258688 (Simulation time: 1 hr 4 min 33 sec) 

ChampSim completed all CPUs

Region of Interest Statistics

CPU 0 cumulative IPC: 0.258688 instructions: 50000002 cycles: 193282791
ITLB TOTAL     ACCESS:    7746859  HIT:    7716951  MISS:      29908  HIT %:    99.6139  MISS %:   0.386066   MPKI: 0.59816
ITLB LOAD TRANSLATION ACCESS:    7746859  HIT:    7716951  MISS:      29908  HIT %:    99.6139  MISS %:   0.386066   MPKI: 0.59816
ITLB PREFETCH  REQUESTED:          0  ISSUED:          0  USEFUL:          0  USELESS:          0
ITLB USEFUL LOAD PREFETCHES:          0 PREFETCH ISSUED TO LOWER LEVEL:          0  ACCURACY: -nan
ITLB TIMELY PREFETCHES:          0 LATE PREFETCHES: 0 DROPPED PREFETCHES: 0
ITLB PREFETCHES SAME FILL-ORIGIN LEVEL: 0 DIFFERENT FILL-ORIGIN LEVEL: 0
ITLB AVERAGE MISS LATENCY: 19.6937 cycles
ITLB RQ	ACCESS:    8913321	FORWARD:          0	MERGED:    1159468	TO_CACHE:    7753853

DTLB TOTAL     ACCESS:   10282187  HIT:    9941095  MISS:     341092  HIT %:    96.6827  MISS %:    3.31731   MPKI: 6.82184
DTLB LOAD TRANSLATION ACCESS:   10282187  HIT:    9941095  MISS:     341092  HIT %:    96.6827  MISS %:    3.31731   MPKI: 6.82184
DTLB PREFETCH  REQUESTED:          0  ISSUED:          0  USEFUL:          0  USELESS:          0
DTLB USEFUL LOAD PREFETCHES:          0 PREFETCH ISSUED TO LOWER LEVEL:          0  ACCURACY: -nan
DTLB TIMELY PREFETCHES:          0 LATE PREFETCHES: 0 DROPPED PREFETCHES: 0
DTLB PREFETCHES SAME FILL-ORIGIN LEVEL: 0 DIFFERENT FILL-ORIGIN LEVEL: 0
DTLB AVERAGE MISS LATENCY: 70.0529 cycles
DTLB RQ	ACCESS:   11368420	FORWARD:          0	MERGED:    1024317	TO_CACHE:   10344103

STLB TOTAL     ACCESS:    1563537  HIT:    1300028  MISS:     263509  HIT %:    83.1466  MISS %:    16.8534   MPKI: 5.27018
STLB LOAD TRANSLATION ACCESS:     371000  HIT:     107587  MISS:     263413  HIT %:    28.9992  MISS %:    71.0008   MPKI: 5.26826
STLB TRANSLATION FROM L1D PREFETCHER ACCESS:    1192537  HIT:    1192441  MISS:         96  HIT %:    99.9919  MISS %: 0.00805006   MPKI: 0.00192
STLB PREFETCH  REQUESTED:          0  ISSUED:          0  USEFUL:         96  USELESS:          0
STLB USEFUL LOAD PREFETCHES:         96 PREFETCH ISSUED TO LOWER LEVEL:          0  ACCURACY: inf
STLB TIMELY PREFETCHES:         96 LATE PREFETCHES: 0 DROPPED PREFETCHES: 0
STLB PREFETCHES SAME FILL-ORIGIN LEVEL: 0 DIFFERENT FILL-ORIGIN LEVEL: 0
STLB AVERAGE MISS LATENCY: 80.2565 cycles
STLB RQ	ACCESS:    2193002	FORWARD:          0	MERGED:     629399	TO_CACHE:    1563603

STLB Hit, L1D data hit: 0
STLB Hit, L2C data hit: 0
STLB Hit, LLC data hit: 0
STLB Hit, LLC data miss: 0
STLB STLB hints to L2: 0
L1D TOTAL     ACCESS:   12786303  HIT:   10427318  MISS:    2358985  HIT %:    81.5507  MISS %:    18.4493   MPKI: 47.1797
L1D LOAD      ACCESS:    9049182  HIT:    7840860  MISS:    1208322  HIT %:    86.6472  MISS %:    13.3528   MPKI: 24.1664
L1D RFO       ACCESS:    2231327  HIT:    2210316  MISS:      21011  HIT %:    99.0584  MISS %:   0.941637   MPKI: 0.42022
L1D PREFETCH  ACCESS:    1505794  HIT:     376142  MISS:    1129652  HIT %:    24.9796  MISS %:    75.0204   MPKI: 22.593
L1D PREFETCH  REQUESTED:    3644022  ISSUED:    3644010  USEFUL:     188554  USELESS:     941054
L1D USEFUL LOAD PREFETCHES:     188554 PREFETCH ISSUED TO LOWER LEVEL:    1183721  ACCURACY: 15.9289
L1D TIMELY PREFETCHES:     188554 LATE PREFETCHES: 53614 DROPPED PREFETCHES: 0
L1D PREFETCHES SAME FILL-ORIGIN LEVEL: 1183721 DIFFERENT FILL-ORIGIN LEVEL: 0
L1D AVERAGE MISS LATENCY: 2.29534e+06 cycles
L1D RQ	ACCESS:   14737122	FORWARD:          0	MERGED:    5590742	TO_CACHE:    9089521
L1D WQ	ACCESS:    2303184	FORWARD:      56865	MERGED:      24285	TO_CACHE:    2278899
L1D PQ	ACCESS:    1822008	FORWARD:          0	MERGED:          0	TO_CACHE:    1822002

L1D UNIQUE REGIONS ACCESSED: 0
L1D REGIONS CONFLICTS: 0
L1D Cross Page Prefetch Requests: 0
L1D Same Page Prefetch Requests: 2164690
L1D ROI Sum of L1D PQ occupancy: 23608976
L1D PREFETCHES PUSHED FROM L2C: 0
L1I TOTAL     ACCESS:    8865301  HIT:    8693954  MISS:     171347  HIT %:    98.0672  MISS %:    1.93278   MPKI: 3.42694
L1I LOAD      ACCESS:    8865301  HIT:    8693954  MISS:     171347  HIT %:    98.0672  MISS %:    1.93278   MPKI: 3.42694
L1I PREFETCH  REQUESTED:          0  ISSUED:          0  USEFUL:          0  USELESS:          0
L1I USEFUL LOAD PREFETCHES:          0 PREFETCH ISSUED TO LOWER LEVEL:          0  ACCURACY: -nan
L1I TIMELY PREFETCHES:          0 LATE PREFETCHES: 0 DROPPED PREFETCHES: 0
L1I PREFETCHES SAME FILL-ORIGIN LEVEL: 0 DIFFERENT FILL-ORIGIN LEVEL: 0
L1I AVERAGE MISS LATENCY: 40.5932 cycles
L1I RQ	ACCESS:   15117834	FORWARD:          0	MERGED:    6204513	TO_CACHE:    8913321

BTB TOTAL     ACCESS:    8242342  HIT:    8167690  MISS:      74652  HIT %:    99.0943  MISS %:   0.905713   MPKI: 1.49304
BTB BRANCH_DIRECT_JUMP	ACCESS:     118676  HIT:     118023  MISS:        653
BTB BRANCH_INDIRECT	ACCESS:      21952  HIT:       8655  MISS:      13297
BTB BRANCH_CONDITIONAL	ACCESS:    6931278  HIT:    6928566  MISS:       2712
BTB BRANCH_DIRECT_CALL	ACCESS:     319784  HIT:     318786  MISS:        998
BTB BRANCH_INDIRECT_CALL	ACCESS:     265434  HIT:     262598  MISS:       2836
BTB BRANCH_RETURN	ACCESS:     585218  HIT:     531062  MISS:      54156
BTB BRANCH_OTHER ACCESS:          0  HIT:          0  MISS:          0

L2C TOTAL     ACCESS:    2875682  HIT:     667587  MISS:    2208095  HIT %:    23.2149  MISS %:    76.7851   MPKI: 44.1619
L2C LOAD      ACCESS:    1326055  HIT:     271062  MISS:    1054993  HIT %:    20.4412  MISS %:    79.5588   MPKI: 21.0999
L2C DATA LOAD MPKI: 20.4415
L2C INSTRUCTION LOAD MPKI: 0.65836
L2C RFO       ACCESS:      20554  HIT:       9580  MISS:      10974  HIT %:    46.6089  MISS %:    53.3911   MPKI: 0.21948
L2C PREFETCH  ACCESS:    1224587  HIT:     144809  MISS:    1079778  HIT %:    11.8251  MISS %:    88.1749   MPKI: 21.5956
L2C DATA PREFETCH MPKI: 21.5956
L2C INSTRUCTION PREFETCH MPKI: 0
L2C WRITEBACK ACCESS:      39813  HIT:      39184  MISS:        629  HIT %:    98.4201  MISS %:    1.57989   MPKI: 0.01258
L2C LOAD TRANSLATION ACCESS:     264553  HIT:     202904  MISS:      61649  HIT %:    76.6969  MISS %:    23.3031   MPKI: 1.23298
L2C TRANSLATION FROM L1D PREFETCHER ACCESS:        120  HIT:         48  MISS:         72  HIT %:         40  MISS %:         60   MPKI: 0.00144
L2C PREFETCH  REQUESTED:      43158  ISSUED:      43158  USEFUL:      24041  USELESS:    1055554
L2C USEFUL LOAD PREFETCHES:      24041 PREFETCH ISSUED TO LOWER LEVEL:    1080251  ACCURACY: 2.2255
L2C TIMELY PREFETCHES:      24041 LATE PREFETCHES: 473 DROPPED PREFETCHES: 0
L2C PREFETCHES SAME FILL-ORIGIN LEVEL: 13861 DIFFERENT FILL-ORIGIN LEVEL: 0
L2C AVERAGE MISS LATENCY: 135.775 cycles
L2C RQ	ACCESS:    1611286	FORWARD:          0	MERGED:          0	TO_CACHE:    1611284
L2C WQ	ACCESS:      39813	FORWARD:          3	MERGED:          0	TO_CACHE:      39813
L2C PQ	ACCESS:    1226879	FORWARD:          0	MERGED:        804	TO_CACHE:    1226074

L2C Instructions Evicting Data 31465
L2C Translations Evicting Data 59261
L2C Data Evicting Data 2021999
L2C Instructions Evicting Instructions 822
L2C Translations Evicting Instructions 772
L2C Data Evicting Instructions 32209
L2C Instructions Evicting Translations 631
L2C Translations Evicting Translations 1688
L2C Data Evicting Translations 58619
L2C Dense regions hint from L2: 0
PSCL5 TOTAL     ACCESS:     263509  HIT:     263509  MISS:          0  HIT %:        100  MISS %:          0   MPKI: 0
PSCL5 LOAD TRANSLATION ACCESS:     263413  HIT:     263413  MISS:          0  HIT %:        100  MISS %:          0   MPKI: 0
PSCL5 TRANSLATION FROM L1D PREFETCHER ACCESS:         96  HIT:         96  MISS:          0  HIT %:        100  MISS %:          0   MPKI: 0
PSCL5 PREFETCH  REQUESTED:          0  ISSUED:          0  USEFUL:          0  USELESS:          0
PSCL5 USEFUL LOAD PREFETCHES:          0 PREFETCH ISSUED TO LOWER LEVEL:          0  ACCURACY: -nan
PSCL5 TIMELY PREFETCHES:          0 LATE PREFETCHES: 0 DROPPED PREFETCHES: 0
PSCL5 PREFETCHES SAME FILL-ORIGIN LEVEL: 0 DIFFERENT FILL-ORIGIN LEVEL: 0

PSCL4 TOTAL     ACCESS:     263509  HIT:     263509  MISS:          0  HIT %:        100  MISS %:          0   MPKI: 0
PSCL4 LOAD TRANSLATION ACCESS:     263413  HIT:     263413  MISS:          0  HIT %:        100  MISS %:          0   MPKI: 0
PSCL4 TRANSLATION FROM L1D PREFETCHER ACCESS:         96  HIT:         96  MISS:          0  HIT %:        100  MISS %:          0   MPKI: 0
PSCL4 PREFETCH  REQUESTED:          0  ISSUED:          0  USEFUL:          0  USELESS:          0
PSCL4 USEFUL LOAD PREFETCHES:          0 PREFETCH ISSUED TO LOWER LEVEL:          0  ACCURACY: -nan
PSCL4 TIMELY PREFETCHES:          0 LATE PREFETCHES: 0 DROPPED PREFETCHES: 0
PSCL4 PREFETCHES SAME FILL-ORIGIN LEVEL: 0 DIFFERENT FILL-ORIGIN LEVEL: 0

PSCL3 TOTAL     ACCESS:     263509  HIT:     263509  MISS:          0  HIT %:        100  MISS %:          0   MPKI: 0
PSCL3 LOAD TRANSLATION ACCESS:     263413  HIT:     263413  MISS:          0  HIT %:        100  MISS %:          0   MPKI: 0
PSCL3 TRANSLATION FROM L1D PREFETCHER ACCESS:         96  HIT:         96  MISS:          0  HIT %:        100  MISS %:          0   MPKI: 0
PSCL3 PREFETCH  REQUESTED:          0  ISSUED:          0  USEFUL:          0  USELESS:          0
PSCL3 USEFUL LOAD PREFETCHES:          0 PREFETCH ISSUED TO LOWER LEVEL:          0  ACCURACY: -nan
PSCL3 TIMELY PREFETCHES:          0 LATE PREFETCHES: 0 DROPPED PREFETCHES: 0
PSCL3 PREFETCHES SAME FILL-ORIGIN LEVEL: 0 DIFFERENT FILL-ORIGIN LEVEL: 0

PSCL2 TOTAL     ACCESS:     263509  HIT:     262345  MISS:       1164  HIT %:    99.5583  MISS %:   0.441731   MPKI: 0.02328
PSCL2 LOAD TRANSLATION ACCESS:     263437  HIT:     262273  MISS:       1164  HIT %:    99.5581  MISS %:   0.441851   MPKI: 0.02328
PSCL2 TRANSLATION FROM L1D PREFETCHER ACCESS:         72  HIT:         72  MISS:          0  HIT %:        100  MISS %:          0   MPKI: 0
PSCL2 PREFETCH  REQUESTED:          0  ISSUED:          0  USEFUL:          0  USELESS:          0
PSCL2 USEFUL LOAD PREFETCHES:          0 PREFETCH ISSUED TO LOWER LEVEL:          0  ACCURACY: -nan
PSCL2 TIMELY PREFETCHES:          0 LATE PREFETCHES: 0 DROPPED PREFETCHES: 0
PSCL2 PREFETCHES SAME FILL-ORIGIN LEVEL: 0 DIFFERENT FILL-ORIGIN LEVEL: 0

LLC TOTAL     ACCESS:    2228980  HIT:     123042  MISS:    2105938  HIT %:     5.5201  MISS %:    94.4799   MPKI: 42.1188
LLC LOAD      ACCESS:    1054521  HIT:      50236  MISS:    1004285  HIT %:    4.76387  MISS %:    95.2361   MPKI: 20.0857
LLC RFO       ACCESS:      10973  HIT:       1678  MISS:       9295  HIT %:    15.2921  MISS %:    84.7079   MPKI: 0.1859
LLC PREFETCH  ACCESS:    1080251  HIT:      48925  MISS:    1031326  HIT %:    4.52904  MISS %:     95.471   MPKI: 20.6265
LLC WRITEBACK ACCESS:      21514  HIT:      21155  MISS:        359  HIT %:    98.3313  MISS %:    1.66868   MPKI: 0.00718
LLC LOAD TRANSLATION ACCESS:      61649  HIT:       1048  MISS:      60601  HIT %:    1.69995  MISS %:    98.3001   MPKI: 1.21202
LLC TRANSLATION FROM L1D PREFETCHER ACCESS:         72  HIT:          0  MISS:         72  HIT %:          0  MISS %:        100   MPKI: 0.00144
LLC PREFETCH  REQUESTED:          0  ISSUED:          0  USEFUL:       8304  USELESS:    1021752
LLC USEFUL LOAD PREFETCHES:       8304 PREFETCH ISSUED TO LOWER LEVEL:    1031327  ACCURACY: 0.805176
LLC TIMELY PREFETCHES:       8304 LATE PREFETCHES: 0 DROPPED PREFETCHES: 0
LLC PREFETCHES SAME FILL-ORIGIN LEVEL: 0 DIFFERENT FILL-ORIGIN LEVEL: 0
LLC AVERAGE MISS LATENCY: 110.931 cycles
LLC RQ	ACCESS:    1127217	FORWARD:          0	MERGED:          0	TO_CACHE:    1127217
LLC WQ	ACCESS:      21514	FORWARD:          0	MERGED:          0	TO_CACHE:      21514
LLC PQ	ACCESS:    1080251	FORWARD:          0	MERGED:          0	TO_CACHE:    1080251

LLC Dense regions hint to LLC: 0

RAW hits: 59169
Loads Generated: 14796291
Loads sent to L1D: 14737122
Stores Generated: 2303186
Stores sent to L1D: 2303184
Major fault: 0 Minor fault: 10925
Allocated PAGES: 10925

stream: 
stream:times selected: 2822655
stream:pref_filled: 939348
stream:pref_useful: 169709
stream:pref_late: 59815
stream:misses: 373279
stream:misses_by_poll: 0

CS: 
CS:times selected: 76990
CS:pref_filled: 84325
CS:pref_useful: 37354
CS:pref_late: 677
CS:misses: 19838
CS:misses_by_poll: 75

CPLX: 
CPLX:times selected: 2719582
CPLX:pref_filled: 305074
CPLX:pref_useful: 21849
CPLX:pref_late: 1459
CPLX:misses: 1036606
CPLX:misses_by_poll: 741

NL_L1: 
NL:times selected: 24015
NL:pref_filled: 9238
NL:pref_useful: 1816
NL:pref_late: 889
NL:misses: 12570
NL:misses_by_poll: 0

total selections: 5643242
total_filled: 1129652
total_useful: 188554
total_late: 64418
total_polluted: 816
total_misses_after_warmup: 1248662
conflicts: 483526
Degree Incremented Times: 0
Degree Decremented Times: 342616

L1 IP Table Write Accesses: 8306804
L1 IP Table Read Accesses: 7823278
L1 RST Write Accesses: 2332876
L1 RST Read Accesses: 4665752
L1 CSPT Write Accesses: 2332876
L1 CSPT Read Accesses: 4582645
L1 RR Filter Tag Write Accesses: 1822020
L1 RR Filter Tag Read Accesses: 88774110
L1 IP Table Tag Write Accesses: 9089522
L1 IP Table Tag Read Accesses: 9089522
L1 RST Tag Write Accesses: 0
L1 RST Tag Read Accesses: 21335860
L1 RR Filter Write Accesses: 0
L1 RR Filter Read Accesses: 2955367
test: 1767675
L2 IP Table Read Accesses: 4628223
L2 IP Table Write Accesses: 3536548
L2 IP Table Tag Read Accesses: 2336230
L2 IP Table Tag Write Accesses: 2336230

DRAM Statistics
 CHANNEL 0
 RQ ROW_BUFFER_HIT:    1447994  ROW_BUFFER_MISS:     657585
 DBUS_CONGESTED:        418
 WQ ROW_BUFFER_HIT:       1064  ROW_BUFFER_MISS:      15700  FULL:          0

 AVG_CONGESTED_CYCLE: 4
 All warmup complete: 2
Channel 0 Bank busy for read cycles: 0
Channel 0 Bank busy for write cycles: 0
Channel 0
Rank 0
0banks busy for read cycles: 109805181
0banks busy for write cycles: 13211
1banks busy for read cycles: 34788774
1banks busy for write cycles: 2376343
2banks busy for read cycles: 22144190
2banks busy for write cycles: 411035
3banks busy for read cycles: 11299595
3banks busy for write cycles: 78885
4banks busy for read cycles: 6207841
4banks busy for write cycles: 17543
5banks busy for read cycles: 4075896
5banks busy for write cycles: 2683
6banks busy for read cycles: 1642622
6banks busy for write cycles: 500
7banks busy for read cycles: 348934
7banks busy for write cycles: 167
8banks busy for read cycles: 69392
8banks busy for write cycles: 0

CPU 0 Branch Prediction Accuracy: 94.93% MPKI: 13.2206 Average ROB Occupancy at Mispredict: 36.8737
Branch types
NOT_BRANCH: 36961557 73.9231%
BRANCH_DIRECT_JUMP: 118676 0.237352%
BRANCH_INDIRECT: 21952 0.043904%
BRANCH_CONDITIONAL: 11727062 23.4541%
BRANCH_DIRECT_CALL: 319784 0.639568%
BRANCH_INDIRECT_CALL: 265434 0.530868%
BRANCH_RETURN: 585218 1.17044%
BRANCH_OTHER: 0 0%

@sumon_overall_L1D    188554     53614    941054   1129652   3644010   3644022
@Sumon_Early_by_class_L1D    139451     29521     18045       762
@Sumon_Late_by_class_L1D     49563       660      1261       762

@Sumon_Early_by_cycle_L1D     47859     14319     27277     23052     15688     31049      7975      3686      7862      8973       369       445
@Sumon_Late_by_cycle_L1D     36177     17260       177         0         0         0         0         0         0         0         0         0
@Sumon_Early_stream_L1D     45585     13032     19257     18775     12320     22235      4784      2103       451       491       178       240
@Sumon_Early_CS_L1D       528       287      2898      1665      1792      4064      1406      1155      7172      8379       103        72
@Sumon_Early_CPLX_L1D       825       792      5082      2570      1492      4577      1757       405       237        97        79       132
@Sumon_Late_stream_L1D     33248     16186       129         0         0         0         0         0         0         0         0         0
@Sumon_Late_CS_L1D       242       371        47         0         0         0         0         0         0         0         0         0
@Sumon_Late_CPLX_L1D       842       418         1         0         0         0         0         0         0         0         0         0
@sumon_overall_L2C     24041       473   1055554   1079850     43158     43158
@Sumon_Early_by_class_L2C     10015      6380      3537         0
@Sumon_Late_by_class_L2C         0         0         0         0

@Sumon_Early_by_cycle_L2C       765       547       747      1154       594      3041      1700      1154      2878      3617       638      7206
@Sumon_Late_by_cycle_L2C       236       212        25         0         0         0         0         0         0         0         0         0
@Sumon_Early_stream_L2C       140       219       389       746       383      1943      1210       542       413       135       163      3732
@Sumon_Early_CS_L2C         0        27        36       118        55       223        71       283      1938      2984        49       596
@Sumon_Early_CPLX_L2C         3        28        65        66        30       594       311       151        83       162       136      1908
@Sumon_Late_stream_L2C         0         0         0         0         0         0         0         0         0         0         0         0
@Sumon_Late_CS_L2C         0         0         0         0         0         0         0         0         0         0         0         0
@Sumon_Late_CPLX_L2C         0         0         0         0         0         0         0         0         0         0         0         0
DRAM PAGES: 1048576
Allocated PAGES: 10925
