
*** ChampSim Multicore Out-of-Order Simulator ***

Warmup Instructions: 10000000
Simulation Instructions: 50000000
Number of CPUs: 1
LLC sets: 2048
LLC ways: 16
Off-chip DRAM Size: 4096 MB Channels: 1 Width: 64-bit Data Rate: 6400 MT/s
CPU 0 runs traces/SPEC2017/649.fotonik3d_s-10881B.champsimtrace.xz
.xz
CPU 0 Bimodal branch predictor
BTB has LRU replacement policy
ITLB has LRU replacement policy
DTLB has LRU replacement policy
STLB has LRU replacement policy
L1I has LRU replacement policy
IP Table Entries: 256
Initialize DRRIP state for L1D
IP_Table L2 entries: 256
Initialize DRRIP state for L2C
LLC has LRU replacement policy
Heartbeat CPU 0 instructions: 10000003 cycles: 5060846 heartbeat IPC: 1.97595 cumulative IPC: 1.97595 (Simulation time: 0 hr 19 min 58 sec) 

Warmup complete CPU 0 instructions: 10000003 cycles: 5060846 (Simulation time: 0 hr 19 min 58 sec) 

Heartbeat CPU 0 instructions: 20000003 cycles: 21274786 heartbeat IPC: 0.616753 cumulative IPC: 0.616753 (Simulation time: 0 hr 37 min 20 sec) 
Heartbeat CPU 0 instructions: 30000001 cycles: 37468828 heartbeat IPC: 0.617511 cumulative IPC: 0.617132 (Simulation time: 0 hr 53 min 56 sec) 
Heartbeat CPU 0 instructions: 40000003 cycles: 53585139 heartbeat IPC: 0.62049 cumulative IPC: 0.618247 (Simulation time: 1 hr 4 min 53 sec) 
Heartbeat CPU 0 instructions: 50000002 cycles: 69794035 heartbeat IPC: 0.616945 cumulative IPC: 0.617921 (Simulation time: 1 hr 10 min 19 sec) 
Heartbeat CPU 0 instructions: 60000000 cycles: 86007139 heartbeat IPC: 0.616785 cumulative IPC: 0.617693 (Simulation time: 1 hr 13 min 50 sec) 
Finished CPU 0 instructions: 50000001 cycles: 80946294 cumulative IPC: 0.617693 (Simulation time: 1 hr 13 min 50 sec) 

ChampSim completed all CPUs

Region of Interest Statistics

CPU 0 cumulative IPC: 0.617693 instructions: 50000001 cycles: 80946294
ITLB TOTAL     ACCESS:    6446860  HIT:    6446860  MISS:          0  HIT %:        100  MISS %:          0   MPKI: 0
ITLB LOAD TRANSLATION ACCESS:    6446860  HIT:    6446860  MISS:          0  HIT %:        100  MISS %:          0   MPKI: 0
ITLB PREFETCH  REQUESTED:          0  ISSUED:          0  USEFUL:          0  USELESS:          0
ITLB USEFUL LOAD PREFETCHES:          0 PREFETCH ISSUED TO LOWER LEVEL:          0  ACCURACY: -nan
ITLB TIMELY PREFETCHES:          0 LATE PREFETCHES: 0 DROPPED PREFETCHES: 0
ITLB PREFETCHES SAME FILL-ORIGIN LEVEL: 0 DIFFERENT FILL-ORIGIN LEVEL: 0
ITLB AVERAGE MISS LATENCY: -nan cycles
ITLB RQ	ACCESS:    6856974	FORWARD:          0	MERGED:     410115	TO_CACHE:    6446859

DTLB TOTAL     ACCESS:   21989939  HIT:   21729328  MISS:     260611  HIT %:    98.8149  MISS %:    1.18514   MPKI: 5.21222
DTLB LOAD TRANSLATION ACCESS:   21989939  HIT:   21729328  MISS:     260611  HIT %:    98.8149  MISS %:    1.18514   MPKI: 5.21222
DTLB PREFETCH  REQUESTED:          0  ISSUED:          0  USEFUL:          0  USELESS:          0
DTLB USEFUL LOAD PREFETCHES:          0 PREFETCH ISSUED TO LOWER LEVEL:          0  ACCURACY: -nan
DTLB TIMELY PREFETCHES:          0 LATE PREFETCHES: 0 DROPPED PREFETCHES: 0
DTLB PREFETCHES SAME FILL-ORIGIN LEVEL: 0 DIFFERENT FILL-ORIGIN LEVEL: 0
DTLB AVERAGE MISS LATENCY: 166.827 cycles
DTLB RQ	ACCESS:   24526195	FORWARD:          0	MERGED:    2524560	TO_CACHE:   22001635

STLB TOTAL     ACCESS:    1564113  HIT:    1394477  MISS:     169636  HIT %:    89.1545  MISS %:    10.8455   MPKI: 3.39272
STLB LOAD TRANSLATION ACCESS:     260611  HIT:      90989  MISS:     169622  HIT %:    34.9137  MISS %:    65.0863   MPKI: 3.39244
STLB TRANSLATION FROM L1D PREFETCHER ACCESS:    1303502  HIT:    1303488  MISS:         14  HIT %:    99.9989  MISS %: 0.00107403   MPKI: 0.00028
STLB PREFETCH  REQUESTED:          0  ISSUED:          0  USEFUL:         14  USELESS:          0
STLB USEFUL LOAD PREFETCHES:         14 PREFETCH ISSUED TO LOWER LEVEL:          0  ACCURACY: inf
STLB TIMELY PREFETCHES:         14 LATE PREFETCHES: 0 DROPPED PREFETCHES: 0
STLB PREFETCHES SAME FILL-ORIGIN LEVEL: 0 DIFFERENT FILL-ORIGIN LEVEL: 0
STLB AVERAGE MISS LATENCY: 224.176 cycles
STLB RQ	ACCESS:    2742128	FORWARD:          0	MERGED:    1178015	TO_CACHE:    1564113

STLB Hit, L1D data hit: 0
STLB Hit, L2C data hit: 0
STLB Hit, LLC data hit: 0
STLB Hit, LLC data miss: 0
STLB STLB hints to L2: 0
L1D TOTAL     ACCESS:   26851071  HIT:   25052301  MISS:    1798770  HIT %:    93.3009  MISS %:    6.69906   MPKI: 35.9754
L1D LOAD      ACCESS:   21231913  HIT:   20746914  MISS:     484999  HIT %:    97.7157  MISS %:    2.28429   MPKI: 9.69998
L1D RFO       ACCESS:    3193012  HIT:    3138907  MISS:      54105  HIT %:    98.3055  MISS %:    1.69448   MPKI: 1.0821
L1D PREFETCH  ACCESS:    2426146  HIT:    1166480  MISS:    1259666  HIT %:    48.0795  MISS %:    51.9205   MPKI: 25.1933
L1D PREFETCH  REQUESTED:    4964555  ISSUED:    4963035  USEFUL:     552865  USELESS:     706810
L1D USEFUL LOAD PREFETCHES:     552865 PREFETCH ISSUED TO LOWER LEVEL:    1279280  ACCURACY: 43.2169
L1D TIMELY PREFETCHES:     552865 LATE PREFETCHES: 19613 DROPPED PREFETCHES: 0
L1D PREFETCHES SAME FILL-ORIGIN LEVEL: 1279280 DIFFERENT FILL-ORIGIN LEVEL: 0
L1D AVERAGE MISS LATENCY: 496386 cycles
L1D RQ	ACCESS:   31958211	FORWARD:          0	MERGED:   10634581	TO_CACHE:   21320535
L1D WQ	ACCESS:    3205660	FORWARD:       3096	MERGED:          0	TO_CACHE:    3205660
L1D PQ	ACCESS:    2481518	FORWARD:          0	MERGED:          0	TO_CACHE:    2481517

L1D UNIQUE REGIONS ACCESSED: 0
L1D REGIONS CONFLICTS: 0
L1D Cross Page Prefetch Requests: 0
L1D Same Page Prefetch Requests: 2986363
L1D ROI Sum of L1D PQ occupancy: 35342368
L1D PREFETCHES PUSHED FROM L2C: 0
L1I TOTAL     ACCESS:    6856975  HIT:    6856975  MISS:          0  HIT %:        100  MISS %:          0   MPKI: 0
L1I LOAD      ACCESS:    6856975  HIT:    6856975  MISS:          0  HIT %:        100  MISS %:          0   MPKI: 0
L1I PREFETCH  REQUESTED:          0  ISSUED:          0  USEFUL:          0  USELESS:          0
L1I USEFUL LOAD PREFETCHES:          0 PREFETCH ISSUED TO LOWER LEVEL:          0  ACCURACY: -nan
L1I TIMELY PREFETCHES:          0 LATE PREFETCHES: 0 DROPPED PREFETCHES: 0
L1I PREFETCHES SAME FILL-ORIGIN LEVEL: 0 DIFFERENT FILL-ORIGIN LEVEL: 0
L1I AVERAGE MISS LATENCY: -nan cycles
L1I RQ	ACCESS:   15659646	FORWARD:          0	MERGED:    8802672	TO_CACHE:    6856974

BTB TOTAL     ACCESS:     560943  HIT:     560938  MISS:          5  HIT %:    99.9991  MISS %: 0.000891356   MPKI: 0.0001
BTB BRANCH_DIRECT_JUMP	ACCESS:      40061  HIT:      40060  MISS:          1
BTB BRANCH_INDIRECT	ACCESS:          0  HIT:          0  MISS:          0
BTB BRANCH_CONDITIONAL	ACCESS:     520882  HIT:     520878  MISS:          4
BTB BRANCH_DIRECT_CALL	ACCESS:          0  HIT:          0  MISS:          0
BTB BRANCH_INDIRECT_CALL	ACCESS:          0  HIT:          0  MISS:          0
BTB BRANCH_RETURN	ACCESS:          0  HIT:          0  MISS:          0
BTB BRANCH_OTHER ACCESS:          0  HIT:          0  MISS:          0

L2C TOTAL     ACCESS:    2474519  HIT:    1097305  MISS:    1377214  HIT %:    44.3442  MISS %:    55.6558   MPKI: 27.5443
L2C LOAD      ACCESS:     458108  HIT:     198550  MISS:     259558  HIT %:    43.3413  MISS %:    56.6587   MPKI: 5.19116
L2C DATA LOAD MPKI: 5.19116
L2C INSTRUCTION LOAD MPKI: 0
L2C RFO       ACCESS:      50425  HIT:      50425  MISS:          0  HIT %:        100  MISS %:          0   MPKI: 0
L2C PREFETCH  ACCESS:    1281349  HIT:     190648  MISS:    1090701  HIT %:    14.8787  MISS %:    85.1213   MPKI: 21.814
L2C DATA PREFETCH MPKI: 21.814
L2C INSTRUCTION PREFETCH MPKI: 0
L2C WRITEBACK ACCESS:     514942  HIT:     509551  MISS:       5391  HIT %:    98.9531  MISS %:    1.04691   MPKI: 0.10782
L2C LOAD TRANSLATION ACCESS:     169681  HIT:     148117  MISS:      21564  HIT %:    87.2914  MISS %:    12.7086   MPKI: 0.43128
L2C TRANSLATION FROM L1D PREFETCHER ACCESS:         14  HIT:         14  MISS:          0  HIT %:        100  MISS %:          0   MPKI: 0
L2C PREFETCH  REQUESTED:       2285  ISSUED:       2285  USEFUL:     131732  USELESS:     958809
L2C USEFUL LOAD PREFETCHES:     131732 PREFETCH ISSUED TO LOWER LEVEL:    1090704  ACCURACY: 12.0777
L2C TIMELY PREFETCHES:     131732 LATE PREFETCHES: 0 DROPPED PREFETCHES: 0
L2C PREFETCHES SAME FILL-ORIGIN LEVEL: 551 DIFFERENT FILL-ORIGIN LEVEL: 0
L2C AVERAGE MISS LATENCY: 203.226 cycles
L2C RQ	ACCESS:     689185	FORWARD:          0	MERGED:          0	TO_CACHE:     678228
L2C WQ	ACCESS:     515186	FORWARD:      10959	MERGED:        244	TO_CACHE:     514942
L2C PQ	ACCESS:    1281565	FORWARD:          0	MERGED:        181	TO_CACHE:    1281382

L2C Instructions Evicting Data 0
L2C Translations Evicting Data 21416
L2C Data Evicting Data 1328913
L2C Instructions Evicting Instructions 0
L2C Translations Evicting Instructions 0
L2C Data Evicting Instructions 0
L2C Instructions Evicting Translations 0
L2C Translations Evicting Translations 148
L2C Data Evicting Translations 21346
L2C Dense regions hint from L2: 0
PSCL5 TOTAL     ACCESS:     169636  HIT:     169636  MISS:          0  HIT %:        100  MISS %:          0   MPKI: 0
PSCL5 LOAD TRANSLATION ACCESS:     169622  HIT:     169622  MISS:          0  HIT %:        100  MISS %:          0   MPKI: 0
PSCL5 TRANSLATION FROM L1D PREFETCHER ACCESS:         14  HIT:         14  MISS:          0  HIT %:        100  MISS %:          0   MPKI: 0
PSCL5 PREFETCH  REQUESTED:          0  ISSUED:          0  USEFUL:          0  USELESS:          0
PSCL5 USEFUL LOAD PREFETCHES:          0 PREFETCH ISSUED TO LOWER LEVEL:          0  ACCURACY: -nan
PSCL5 TIMELY PREFETCHES:          0 LATE PREFETCHES: 0 DROPPED PREFETCHES: 0
PSCL5 PREFETCHES SAME FILL-ORIGIN LEVEL: 0 DIFFERENT FILL-ORIGIN LEVEL: 0

PSCL4 TOTAL     ACCESS:     169636  HIT:     169636  MISS:          0  HIT %:        100  MISS %:          0   MPKI: 0
PSCL4 LOAD TRANSLATION ACCESS:     169622  HIT:     169622  MISS:          0  HIT %:        100  MISS %:          0   MPKI: 0
PSCL4 TRANSLATION FROM L1D PREFETCHER ACCESS:         14  HIT:         14  MISS:          0  HIT %:        100  MISS %:          0   MPKI: 0
PSCL4 PREFETCH  REQUESTED:          0  ISSUED:          0  USEFUL:          0  USELESS:          0
PSCL4 USEFUL LOAD PREFETCHES:          0 PREFETCH ISSUED TO LOWER LEVEL:          0  ACCURACY: -nan
PSCL4 TIMELY PREFETCHES:          0 LATE PREFETCHES: 0 DROPPED PREFETCHES: 0
PSCL4 PREFETCHES SAME FILL-ORIGIN LEVEL: 0 DIFFERENT FILL-ORIGIN LEVEL: 0

PSCL3 TOTAL     ACCESS:     169636  HIT:     169636  MISS:          0  HIT %:        100  MISS %:          0   MPKI: 0
PSCL3 LOAD TRANSLATION ACCESS:     169622  HIT:     169622  MISS:          0  HIT %:        100  MISS %:          0   MPKI: 0
PSCL3 TRANSLATION FROM L1D PREFETCHER ACCESS:         14  HIT:         14  MISS:          0  HIT %:        100  MISS %:          0   MPKI: 0
PSCL3 PREFETCH  REQUESTED:          0  ISSUED:          0  USEFUL:          0  USELESS:          0
PSCL3 USEFUL LOAD PREFETCHES:          0 PREFETCH ISSUED TO LOWER LEVEL:          0  ACCURACY: -nan
PSCL3 TIMELY PREFETCHES:          0 LATE PREFETCHES: 0 DROPPED PREFETCHES: 0
PSCL3 PREFETCHES SAME FILL-ORIGIN LEVEL: 0 DIFFERENT FILL-ORIGIN LEVEL: 0

PSCL2 TOTAL     ACCESS:     169636  HIT:     169325  MISS:        311  HIT %:    99.8167  MISS %:   0.183334   MPKI: 0.00622
PSCL2 LOAD TRANSLATION ACCESS:     169622  HIT:     169311  MISS:        311  HIT %:    99.8167  MISS %:   0.183349   MPKI: 0.00622
PSCL2 TRANSLATION FROM L1D PREFETCHER ACCESS:         14  HIT:         14  MISS:          0  HIT %:        100  MISS %:          0   MPKI: 0
PSCL2 PREFETCH  REQUESTED:          0  ISSUED:          0  USEFUL:          0  USELESS:          0
PSCL2 USEFUL LOAD PREFETCHES:          0 PREFETCH ISSUED TO LOWER LEVEL:          0  ACCURACY: -nan
PSCL2 TIMELY PREFETCHES:          0 LATE PREFETCHES: 0 DROPPED PREFETCHES: 0
PSCL2 PREFETCHES SAME FILL-ORIGIN LEVEL: 0 DIFFERENT FILL-ORIGIN LEVEL: 0

LLC TOTAL     ACCESS:    1857553  HIT:     616466  MISS:    1241087  HIT %:     33.187  MISS %:     66.813   MPKI: 24.8217
LLC LOAD      ACCESS:     259558  HIT:      29158  MISS:     230400  HIT %:    11.2337  MISS %:    88.7663   MPKI: 4.608
LLC PREFETCH  ACCESS:    1090701  HIT:      99090  MISS:     991611  HIT %:    9.08498  MISS %:     90.915   MPKI: 19.8322
LLC WRITEBACK ACCESS:     485730  HIT:     485631  MISS:         99  HIT %:    99.9796  MISS %:  0.0203817   MPKI: 0.00198
LLC LOAD TRANSLATION ACCESS:      21564  HIT:       2587  MISS:      18977  HIT %:    11.9968  MISS %:    88.0032   MPKI: 0.37954
LLC PREFETCH  REQUESTED:          0  ISSUED:          0  USEFUL:       7320  USELESS:     984523
LLC USEFUL LOAD PREFETCHES:       7320 PREFETCH ISSUED TO LOWER LEVEL:     991614  ACCURACY: 0.73819
LLC TIMELY PREFETCHES:       7320 LATE PREFETCHES: 0 DROPPED PREFETCHES: 0
LLC PREFETCHES SAME FILL-ORIGIN LEVEL: 0 DIFFERENT FILL-ORIGIN LEVEL: 0
LLC AVERAGE MISS LATENCY: 185.607 cycles
LLC RQ	ACCESS:     281122	FORWARD:          0	MERGED:          0	TO_CACHE:     281122
LLC WQ	ACCESS:     485730	FORWARD:          0	MERGED:          0	TO_CACHE:     485730
LLC PQ	ACCESS:    1090704	FORWARD:          0	MERGED:          0	TO_CACHE:    1090704

LLC Dense regions hint to LLC: 0

RAW hits: 52183
Loads Generated: 32010393
Loads sent to L1D: 31958211
Stores Generated: 3205665
Stores sent to L1D: 3205660
Major fault: 0 Minor fault: 154689
Allocated PAGES: 154689

stream: 
stream:times selected: 2127711
stream:pref_filled: 732667
stream:pref_useful: 237531
stream:pref_late: 6365
stream:misses: 155262
stream:misses_by_poll: 0

CS: 
CS:times selected: 381520
CS:pref_filled: 4685
CS:pref_useful: 1124
CS:pref_late: 5
CS:misses: 5784
CS:misses_by_poll: 14

CPLX: 
CPLX:times selected: 1809291
CPLX:pref_filled: 785289
CPLX:pref_useful: 425102
CPLX:pref_late: 12957
CPLX:misses: 417459
CPLX:misses_by_poll: 4811

NL_L1: 
NL:times selected: 224
NL:pref_filled: 160
NL:pref_useful: 45
NL:pref_late: 1
NL:misses: 93
NL:misses_by_poll: 0

total selections: 4318746
total_filled: 1259666
total_useful: 552865
total_late: 19863
total_polluted: 4825
total_misses_after_warmup: 573623
conflicts: 402325
Degree Incremented Times: 0
Degree Decremented Times: 193158

L1 IP Table Write Accesses: 20013228
L1 IP Table Read Accesses: 19610903
L1 RST Write Accesses: 1777329
L1 RST Read Accesses: 3554658
L1 CSPT Write Accesses: 1777329
L1 CSPT Read Accesses: 5889361
L1 RR Filter Tag Write Accesses: 2483038
L1 RR Filter Tag Read Accesses: 140568430
L1 IP Table Tag Write Accesses: 21320537
L1 IP Table Tag Read Accesses: 21320537
L1 RST Tag Write Accesses: 0
L1 RST Tag Read Accesses: 16821660
L1 RR Filter Write Accesses: 0
L1 RR Filter Read Accesses: 5369007
test: 324650
L2 IP Table Read Accesses: 3462237
L2 IP Table Write Accesses: 3005849
L2 IP Table Tag Read Accesses: 1732527
L2 IP Table Tag Write Accesses: 1732527

DRAM Statistics
 CHANNEL 0
 RQ ROW_BUFFER_HIT:     447309  ROW_BUFFER_MISS:     793679
 DBUS_CONGESTED:       1098
 WQ ROW_BUFFER_HIT:     120740  ROW_BUFFER_MISS:     364950  FULL:          0

 AVG_CONGESTED_CYCLE: 5
 All warmup complete: 2
Channel 0 Bank busy for read cycles: 0
Channel 0 Bank busy for write cycles: 0
Channel 0
Rank 0
0banks busy for read cycles: 444798
0banks busy for write cycles: 3331
1banks busy for read cycles: 22288475
1banks busy for write cycles: 626565
2banks busy for read cycles: 16027494
2banks busy for write cycles: 927666
3banks busy for read cycles: 10033847
3banks busy for write cycles: 1352984
4banks busy for read cycles: 5643908
4banks busy for write cycles: 1887067
5banks busy for read cycles: 3200053
5banks busy for write cycles: 2506407
6banks busy for read cycles: 1850078
6banks busy for write cycles: 3305708
7banks busy for read cycles: 819179
7banks busy for write cycles: 4372335
8banks busy for read cycles: 200052
8banks busy for write cycles: 5456348

CPU 0 Branch Prediction Accuracy: 93.3273% MPKI: 0.80206 Average ROB Occupancy at Mispredict: 341.129
Branch types
NOT_BRANCH: 49398999 98.798%
BRANCH_DIRECT_JUMP: 40061 0.080122%
BRANCH_INDIRECT: 0 0%
BRANCH_CONDITIONAL: 560943 1.12189%
BRANCH_DIRECT_CALL: 0 0%
BRANCH_INDIRECT_CALL: 0 0%
BRANCH_RETURN: 0 0%
BRANCH_OTHER: 0 0%

@sumon_overall_L1D    552865     19613    706810   1259666   4963035   4964555
@Sumon_Early_by_class_L1D    196823       835    355166         0
@Sumon_Late_by_class_L1D      6343         5     12735         0

@Sumon_Early_by_cycle_L1D      8101     14968     52885     83579     57283    200964    125177        14      2827      6813       240        14
@Sumon_Late_by_cycle_L1D      6962      9235      3333        81         2         0         0         0         0         0         0         0
@Sumon_Early_stream_L1D      5264     11330     42674     66915     38301     29525        45         1      2768         0         0         0
@Sumon_Early_CS_L1D         4        13        97       265       226       174         2         0        54         0         0         0
@Sumon_Early_CPLX_L1D      2832      3624     10112     16382     18743    171258    125130        13         5      6813       240        14
@Sumon_Late_stream_L1D      2778      2855       699        11         0         0         0         0         0         0         0         0
@Sumon_Late_CS_L1D         3         0         2         0         0         0         0         0         0         0         0         0
@Sumon_Late_CPLX_L1D      3665      6366      2632        70         2         0         0         0         0         0         0         0
@sumon_overall_L2C    131732         0    958809   1090701      2285      2285
@Sumon_Early_by_class_L2C     27745       562    103393         0
@Sumon_Late_by_class_L2C         0         0         0         0

@Sumon_Early_by_cycle_L2C        61       718      4863     10294      9281     33574     63315        10       902      8097       493       124
@Sumon_Late_by_cycle_L2C         0         0         0         0         0         0         0         0         0         0         0         0
@Sumon_Early_stream_L2C        40       474      3736      8623      6851      7170         3         0       848         0         0         0
@Sumon_Early_CS_L2C         0         0        36       121       145       206         0         0        54         0         0         0
@Sumon_Early_CPLX_L2C        21       244      1091      1546      2276     26181     63312        10         0      8097       493       122
@Sumon_Late_stream_L2C         0         0         0         0         0         0         0         0         0         0         0         0
@Sumon_Late_CS_L2C         0         0         0         0         0         0         0         0         0         0         0         0
@Sumon_Late_CPLX_L2C         0         0         0         0         0         0         0         0         0         0         0         0
DRAM PAGES: 1048576
Allocated PAGES: 154689
