
*** ChampSim Multicore Out-of-Order Simulator ***

Warmup Instructions: 10000000
Simulation Instructions: 50000000
Number of CPUs: 1
LLC sets: 2048
LLC ways: 16
Off-chip DRAM Size: 4096 MB Channels: 1 Width: 64-bit Data Rate: 6400 MT/s
CPU 0 runs traces/SPEC2017/649.fotonik3d_s-7084B.champsimtrace.xz
.xz
CPU 0 Bimodal branch predictor
BTB has LRU replacement policy
ITLB has LRU replacement policy
DTLB has LRU replacement policy
STLB has LRU replacement policy
L1I has LRU replacement policy
IP Table Entries: 256
Initialize DRRIP state for L1D
IP_Table L2 entries: 256
Initialize DRRIP state for L2C
LLC has LRU replacement policy
Heartbeat CPU 0 instructions: 10000001 cycles: 2909591 heartbeat IPC: 3.43691 cumulative IPC: 3.43691 (Simulation time: 0 hr 11 min 50 sec) 

Warmup complete CPU 0 instructions: 10000001 cycles: 2909591 (Simulation time: 0 hr 11 min 50 sec) 

Heartbeat CPU 0 instructions: 20000002 cycles: 13234624 heartbeat IPC: 0.96852 cumulative IPC: 0.96852 (Simulation time: 0 hr 21 min 14 sec) 
Heartbeat CPU 0 instructions: 30000002 cycles: 23573233 heartbeat IPC: 0.967248 cumulative IPC: 0.967884 (Simulation time: 0 hr 30 min 58 sec) 
Heartbeat CPU 0 instructions: 40000003 cycles: 33923520 heartbeat IPC: 0.966157 cumulative IPC: 0.967307 (Simulation time: 0 hr 40 min 43 sec) 
Heartbeat CPU 0 instructions: 50000002 cycles: 44269073 heartbeat IPC: 0.966599 cumulative IPC: 0.96713 (Simulation time: 0 hr 50 min 13 sec) 
Heartbeat CPU 0 instructions: 60000002 cycles: 54631120 heartbeat IPC: 0.96506 cumulative IPC: 0.966715 (Simulation time: 0 hr 58 min 17 sec) 
Finished CPU 0 instructions: 50000001 cycles: 51721529 cumulative IPC: 0.966715 (Simulation time: 0 hr 58 min 17 sec) 

ChampSim completed all CPUs

Region of Interest Statistics

CPU 0 cumulative IPC: 0.966715 instructions: 50000001 cycles: 51721529
ITLB TOTAL     ACCESS:    6088063  HIT:    6088063  MISS:          0  HIT %:        100  MISS %:          0   MPKI: 0
ITLB LOAD TRANSLATION ACCESS:    6088063  HIT:    6088063  MISS:          0  HIT %:        100  MISS %:          0   MPKI: 0
ITLB PREFETCH  REQUESTED:          0  ISSUED:          0  USEFUL:          0  USELESS:          0
ITLB USEFUL LOAD PREFETCHES:          0 PREFETCH ISSUED TO LOWER LEVEL:          0  ACCURACY: -nan
ITLB TIMELY PREFETCHES:          0 LATE PREFETCHES: 0 DROPPED PREFETCHES: 0
ITLB PREFETCHES SAME FILL-ORIGIN LEVEL: 0 DIFFERENT FILL-ORIGIN LEVEL: 0
ITLB AVERAGE MISS LATENCY: -nan cycles
ITLB RQ	ACCESS:    7429406	FORWARD:          0	MERGED:    1341342	TO_CACHE:    6088064

DTLB TOTAL     ACCESS:   13254988  HIT:   13186351  MISS:      68637  HIT %:    99.4822  MISS %:    0.51782   MPKI: 1.37274
DTLB LOAD TRANSLATION ACCESS:   13254988  HIT:   13186351  MISS:      68637  HIT %:    99.4822  MISS %:    0.51782   MPKI: 1.37274
DTLB PREFETCH  REQUESTED:          0  ISSUED:          0  USEFUL:          0  USELESS:          0
DTLB USEFUL LOAD PREFETCHES:          0 PREFETCH ISSUED TO LOWER LEVEL:          0  ACCURACY: -nan
DTLB TIMELY PREFETCHES:          0 LATE PREFETCHES: 0 DROPPED PREFETCHES: 0
DTLB PREFETCHES SAME FILL-ORIGIN LEVEL: 0 DIFFERENT FILL-ORIGIN LEVEL: 0
DTLB AVERAGE MISS LATENCY: 36.2104 cycles
DTLB RQ	ACCESS:   14551160	FORWARD:          0	MERGED:    1294809	TO_CACHE:   13256351

STLB TOTAL     ACCESS:    1254035  HIT:    1240389  MISS:      13646  HIT %:    98.9118  MISS %:    1.08817   MPKI: 0.27292
STLB LOAD TRANSLATION ACCESS:      68637  HIT:      54991  MISS:      13646  HIT %:    80.1186  MISS %:    19.8814   MPKI: 0.27292
STLB TRANSLATION FROM L1D PREFETCHER ACCESS:    1185398  HIT:    1185398  MISS:          0  HIT %:        100  MISS %:          0   MPKI: 0
STLB PREFETCH  REQUESTED:          0  ISSUED:          0  USEFUL:          0  USELESS:          0
STLB USEFUL LOAD PREFETCHES:          0 PREFETCH ISSUED TO LOWER LEVEL:          0  ACCURACY: -nan
STLB TIMELY PREFETCHES:          0 LATE PREFETCHES: 0 DROPPED PREFETCHES: 0
STLB PREFETCHES SAME FILL-ORIGIN LEVEL: 0 DIFFERENT FILL-ORIGIN LEVEL: 0
STLB AVERAGE MISS LATENCY: 135.588 cycles
STLB RQ	ACCESS:    2381723	FORWARD:          0	MERGED:    1127688	TO_CACHE:    1254035

STLB Hit, L1D data hit: 0
STLB Hit, L2C data hit: 0
STLB Hit, LLC data hit: 0
STLB Hit, LLC data miss: 0
STLB STLB hints to L2: 0
L1D TOTAL     ACCESS:   16843163  HIT:   15517026  MISS:    1326137  HIT %:    92.1266  MISS %:    7.87344   MPKI: 26.5227
L1D LOAD      ACCESS:   12085507  HIT:   11874497  MISS:     211010  HIT %:     98.254  MISS %:    1.74598   MPKI: 4.2202
L1D RFO       ACCESS:    2458545  HIT:    2453865  MISS:       4680  HIT %:    99.8096  MISS %:   0.190356   MPKI: 0.0936
L1D PREFETCH  ACCESS:    2299111  HIT:    1188664  MISS:    1110447  HIT %:     51.701  MISS %:     48.299   MPKI: 22.2089
L1D PREFETCH  REQUESTED:    4631591  ISSUED:    4626172  USEFUL:     648804  USELESS:     461668
L1D USEFUL LOAD PREFETCHES:     648804 PREFETCH ISSUED TO LOWER LEVEL:    1113721  ACCURACY: 58.2555
L1D TIMELY PREFETCHES:     648804 LATE PREFETCHES: 3267 DROPPED PREFETCHES: 0
L1D PREFETCHES SAME FILL-ORIGIN LEVEL: 1113721 DIFFERENT FILL-ORIGIN LEVEL: 0
L1D AVERAGE MISS LATENCY: 72507.7 cycles
L1D RQ	ACCESS:   17572296	FORWARD:          0	MERGED:    5465740	TO_CACHE:   12092568
L1D WQ	ACCESS:    2458592	FORWARD:      13988	MERGED:          0	TO_CACHE:    2458592
L1D PQ	ACCESS:    2313086	FORWARD:          0	MERGED:          0	TO_CACHE:    2313086

L1D UNIQUE REGIONS ACCESSED: 0
L1D REGIONS CONFLICTS: 0
L1D Cross Page Prefetch Requests: 0
L1D Same Page Prefetch Requests: 2786233
L1D ROI Sum of L1D PQ occupancy: 36318601
L1D PREFETCHES PUSHED FROM L2C: 0
L1I TOTAL     ACCESS:    7429405  HIT:    7429405  MISS:          0  HIT %:        100  MISS %:          0   MPKI: 0
L1I LOAD      ACCESS:    7429405  HIT:    7429405  MISS:          0  HIT %:        100  MISS %:          0   MPKI: 0
L1I PREFETCH  REQUESTED:          0  ISSUED:          0  USEFUL:          0  USELESS:          0
L1I USEFUL LOAD PREFETCHES:          0 PREFETCH ISSUED TO LOWER LEVEL:          0  ACCURACY: -nan
L1I TIMELY PREFETCHES:          0 LATE PREFETCHES: 0 DROPPED PREFETCHES: 0
L1I PREFETCHES SAME FILL-ORIGIN LEVEL: 0 DIFFERENT FILL-ORIGIN LEVEL: 0
L1I AVERAGE MISS LATENCY: -nan cycles
L1I RQ	ACCESS:   10832839	FORWARD:          0	MERGED:    3403433	TO_CACHE:    7429406

BTB TOTAL     ACCESS:     336775  HIT:     336772  MISS:          3  HIT %:    99.9991  MISS %: 0.000890802   MPKI: 6e-05
BTB BRANCH_DIRECT_JUMP	ACCESS:          0  HIT:          0  MISS:          0
BTB BRANCH_INDIRECT	ACCESS:          0  HIT:          0  MISS:          0
BTB BRANCH_CONDITIONAL	ACCESS:     336775  HIT:     336772  MISS:          3
BTB BRANCH_DIRECT_CALL	ACCESS:          0  HIT:          0  MISS:          0
BTB BRANCH_INDIRECT_CALL	ACCESS:          0  HIT:          0  MISS:          0
BTB BRANCH_RETURN	ACCESS:          0  HIT:          0  MISS:          0
BTB BRANCH_OTHER ACCESS:          0  HIT:          0  MISS:          0

L2C TOTAL     ACCESS:    1600892  HIT:     727535  MISS:     873357  HIT %:    45.4456  MISS %:    54.5544   MPKI: 17.4671
L2C LOAD      ACCESS:     207490  HIT:     177143  MISS:      30347  HIT %:    85.3742  MISS %:    14.6258   MPKI: 0.60694
L2C DATA LOAD MPKI: 0.60694
L2C INSTRUCTION LOAD MPKI: 0
L2C RFO       ACCESS:       4672  HIT:       4672  MISS:          0  HIT %:        100  MISS %:          0   MPKI: 0
L2C PREFETCH  ACCESS:    1113906  HIT:     273639  MISS:     840267  HIT %:    24.5657  MISS %:    75.4343   MPKI: 16.8053
L2C DATA PREFETCH MPKI: 16.8053
L2C INSTRUCTION PREFETCH MPKI: 0
L2C WRITEBACK ACCESS:     261178  HIT:     260292  MISS:        886  HIT %:    99.6608  MISS %:   0.339232   MPKI: 0.01772
L2C LOAD TRANSLATION ACCESS:      13646  HIT:      11789  MISS:       1857  HIT %:    86.3916  MISS %:    13.6084   MPKI: 0.03714
L2C PREFETCH  REQUESTED:        192  ISSUED:        192  USEFUL:     138037  USELESS:     702417
L2C USEFUL LOAD PREFETCHES:     138037 PREFETCH ISSUED TO LOWER LEVEL:     840273  ACCURACY: 16.4276
L2C TIMELY PREFETCHES:     138037 LATE PREFETCHES: 0 DROPPED PREFETCHES: 0
L2C PREFETCHES SAME FILL-ORIGIN LEVEL: 26 DIFFERENT FILL-ORIGIN LEVEL: 0
L2C AVERAGE MISS LATENCY: 218.766 cycles
L2C RQ	ACCESS:     226069	FORWARD:          0	MERGED:          0	TO_CACHE:     225808
L2C WQ	ACCESS:     261178	FORWARD:        261	MERGED:          0	TO_CACHE:     261178
L2C PQ	ACCESS:    1113913	FORWARD:          0	MERGED:          0	TO_CACHE:    1113913

L2C Instructions Evicting Data 0
L2C Translations Evicting Data 1857
L2C Data Evicting Data 868774
L2C Instructions Evicting Instructions 0
L2C Translations Evicting Instructions 0
L2C Data Evicting Instructions 0
L2C Instructions Evicting Translations 0
L2C Translations Evicting Translations 0
L2C Data Evicting Translations 1840
L2C Dense regions hint from L2: 0
PSCL5 TOTAL     ACCESS:      13646  HIT:      13646  MISS:          0  HIT %:        100  MISS %:          0   MPKI: 0
PSCL5 LOAD TRANSLATION ACCESS:      13646  HIT:      13646  MISS:          0  HIT %:        100  MISS %:          0   MPKI: 0
PSCL5 PREFETCH  REQUESTED:          0  ISSUED:          0  USEFUL:          0  USELESS:          0
PSCL5 USEFUL LOAD PREFETCHES:          0 PREFETCH ISSUED TO LOWER LEVEL:          0  ACCURACY: -nan
PSCL5 TIMELY PREFETCHES:          0 LATE PREFETCHES: 0 DROPPED PREFETCHES: 0
PSCL5 PREFETCHES SAME FILL-ORIGIN LEVEL: 0 DIFFERENT FILL-ORIGIN LEVEL: 0

PSCL4 TOTAL     ACCESS:      13646  HIT:      13646  MISS:          0  HIT %:        100  MISS %:          0   MPKI: 0
PSCL4 LOAD TRANSLATION ACCESS:      13646  HIT:      13646  MISS:          0  HIT %:        100  MISS %:          0   MPKI: 0
PSCL4 PREFETCH  REQUESTED:          0  ISSUED:          0  USEFUL:          0  USELESS:          0
PSCL4 USEFUL LOAD PREFETCHES:          0 PREFETCH ISSUED TO LOWER LEVEL:          0  ACCURACY: -nan
PSCL4 TIMELY PREFETCHES:          0 LATE PREFETCHES: 0 DROPPED PREFETCHES: 0
PSCL4 PREFETCHES SAME FILL-ORIGIN LEVEL: 0 DIFFERENT FILL-ORIGIN LEVEL: 0

PSCL3 TOTAL     ACCESS:      13646  HIT:      13646  MISS:          0  HIT %:        100  MISS %:          0   MPKI: 0
PSCL3 LOAD TRANSLATION ACCESS:      13646  HIT:      13646  MISS:          0  HIT %:        100  MISS %:          0   MPKI: 0
PSCL3 PREFETCH  REQUESTED:          0  ISSUED:          0  USEFUL:          0  USELESS:          0
PSCL3 USEFUL LOAD PREFETCHES:          0 PREFETCH ISSUED TO LOWER LEVEL:          0  ACCURACY: -nan
PSCL3 TIMELY PREFETCHES:          0 LATE PREFETCHES: 0 DROPPED PREFETCHES: 0
PSCL3 PREFETCHES SAME FILL-ORIGIN LEVEL: 0 DIFFERENT FILL-ORIGIN LEVEL: 0

PSCL2 TOTAL     ACCESS:      13646  HIT:      13625  MISS:         21  HIT %:    99.8461  MISS %:   0.153891   MPKI: 0.00042
PSCL2 LOAD TRANSLATION ACCESS:      13646  HIT:      13625  MISS:         21  HIT %:    99.8461  MISS %:   0.153891   MPKI: 0.00042
PSCL2 PREFETCH  REQUESTED:          0  ISSUED:          0  USEFUL:          0  USELESS:          0
PSCL2 USEFUL LOAD PREFETCHES:          0 PREFETCH ISSUED TO LOWER LEVEL:          0  ACCURACY: -nan
PSCL2 TIMELY PREFETCHES:          0 LATE PREFETCHES: 0 DROPPED PREFETCHES: 0
PSCL2 PREFETCHES SAME FILL-ORIGIN LEVEL: 0 DIFFERENT FILL-ORIGIN LEVEL: 0

LLC TOTAL     ACCESS:    1131866  HIT:     259938  MISS:     871928  HIT %:    22.9654  MISS %:    77.0346   MPKI: 17.4386
LLC LOAD      ACCESS:      30347  HIT:        113  MISS:      30234  HIT %:    0.37236  MISS %:    99.6276   MPKI: 0.60468
LLC PREFETCH  ACCESS:     840267  HIT:        326  MISS:     839941  HIT %:  0.0387972  MISS %:    99.9612   MPKI: 16.7988
LLC WRITEBACK ACCESS:     259395  HIT:     259388  MISS:          7  HIT %:    99.9973  MISS %: 0.00269859   MPKI: 0.00014
LLC LOAD TRANSLATION ACCESS:       1857  HIT:        111  MISS:       1746  HIT %:    5.97738  MISS %:    94.0226   MPKI: 0.03492
LLC PREFETCH  REQUESTED:          0  ISSUED:          0  USEFUL:        108  USELESS:     839905
LLC USEFUL LOAD PREFETCHES:        108 PREFETCH ISSUED TO LOWER LEVEL:     839947  ACCURACY: 0.012858
LLC TIMELY PREFETCHES:        108 LATE PREFETCHES: 0 DROPPED PREFETCHES: 0
LLC PREFETCHES SAME FILL-ORIGIN LEVEL: 0 DIFFERENT FILL-ORIGIN LEVEL: 0
LLC AVERAGE MISS LATENCY: 188.203 cycles
LLC RQ	ACCESS:      32204	FORWARD:          0	MERGED:          0	TO_CACHE:      32204
LLC WQ	ACCESS:     259396	FORWARD:          0	MERGED:          0	TO_CACHE:     259396
LLC PQ	ACCESS:     840273	FORWARD:          0	MERGED:          0	TO_CACHE:     840273

LLC Dense regions hint to LLC: 0

RAW hits: 114110
Loads Generated: 17686394
Loads sent to L1D: 17572296
Stores Generated: 2458593
Stores sent to L1D: 2458592
Major fault: 0 Minor fault: 13917
Allocated PAGES: 13917

stream: 
stream:times selected: 2073490
stream:pref_filled: 219161
stream:pref_useful: 84542
stream:pref_late: 2754
stream:misses: 228
stream:misses_by_poll: 0

CS: 
CS:times selected: 1803562
CS:pref_filled: 1109787
CS:pref_useful: 695745
CS:pref_late: 379
CS:misses: 260393
CS:misses_by_poll: 10509

CPLX: 
CPLX:times selected: 269816
CPLX:pref_filled: 3627
CPLX:pref_useful: 1141
CPLX:pref_late: 4
CPLX:misses: 1320
CPLX:misses_by_poll: 4

NL_L1: 
NL:times selected: 29
NL:pref_filled: 8
NL:pref_useful: 3
NL:pref_late: 0
NL:misses: 8
NL:misses_by_poll: 0

total selections: 4146897
total_filled: 1110447
total_useful: 648804
total_late: 3267
total_polluted: 10513
total_misses_after_warmup: 218074
conflicts: 13308
Degree Incremented Times: 0
Degree Decremented Times: 116664

L1 IP Table Write Accesses: 11692279
L1 IP Table Read Accesses: 11678971
L1 RST Write Accesses: 1726635
L1 RST Read Accesses: 3453270
L1 CSPT Write Accesses: 1726635
L1 CSPT Read Accesses: 1956356
L1 RR Filter Tag Write Accesses: 2318505
L1 RR Filter Tag Read Accesses: 156119024
L1 IP Table Tag Write Accesses: 12092571
L1 IP Table Tag Read Accesses: 12092571
L1 RST Tag Write Accesses: 0
L1 RST Tag Read Accesses: 15948258
L1 RR Filter Write Accesses: 0
L1 RR Filter Read Accesses: 6261394
test: 46978
L2 IP Table Read Accesses: 2641860
L2 IP Table Write Accesses: 2434568
L2 IP Table Tag Read Accesses: 1321026
L2 IP Table Tag Write Accesses: 1321026

DRAM Statistics
 CHANNEL 0
 RQ ROW_BUFFER_HIT:     269829  ROW_BUFFER_MISS:     602093
 DBUS_CONGESTED:        460
 WQ ROW_BUFFER_HIT:     125715  ROW_BUFFER_MISS:     134474  FULL:          0

 AVG_CONGESTED_CYCLE: 4
 All warmup complete: 2
Channel 0 Bank busy for read cycles: 0
Channel 0 Bank busy for write cycles: 0
Channel 0
Rank 0
0banks busy for read cycles: 162244
0banks busy for write cycles: 444
1banks busy for read cycles: 11995891
1banks busy for write cycles: 133412
2banks busy for read cycles: 12918150
2banks busy for write cycles: 140241
3banks busy for read cycles: 9107622
3banks busy for write cycles: 141080
4banks busy for read cycles: 5183152
4banks busy for write cycles: 148990
5banks busy for read cycles: 1947320
5banks busy for write cycles: 164296
6banks busy for read cycles: 682036
6banks busy for write cycles: 191077
7banks busy for read cycles: 387680
7banks busy for write cycles: 566828
8banks busy for read cycles: 236694
8banks busy for write cycles: 7614373

CPU 0 Branch Prediction Accuracy: 99.186% MPKI: 0.0562 Average ROB Occupancy at Mispredict: 60.3694
Branch types
NOT_BRANCH: 49654460 99.3089%
BRANCH_DIRECT_JUMP: 0 0%
BRANCH_INDIRECT: 0 0%
BRANCH_CONDITIONAL: 345199 0.690398%
BRANCH_DIRECT_CALL: 0 0%
BRANCH_INDIRECT_CALL: 0 0%
BRANCH_RETURN: 0 0%
BRANCH_OTHER: 0 0%

@sumon_overall_L1D    648804      3267    461668   1110447   4626172   4631591
@Sumon_Early_by_class_L1D     71120    576746       938         0
@Sumon_Late_by_class_L1D      2754       379         4         0

@Sumon_Early_by_cycle_L1D      4181     10034     21306     46078     18165    493589     52418       162      1544       914       413         0
@Sumon_Late_by_cycle_L1D      1680       999       482        96         9         1         0         0         0         0         0         0
@Sumon_Early_stream_L1D      3115      5737     15924     40067      2766      3507         4         0         0         0         0         0
@Sumon_Early_CS_L1D      1062      4288      5365      6007     15396    490061     52405         9       826       914       413         0
@Sumon_Early_CPLX_L1D         4         9        17         4         3        21         9       153       718         0         0         0
@Sumon_Late_stream_L1D      1314       878       464        89         9         0         0         0         0         0         0         0
@Sumon_Late_CS_L1D       234       119        18         7         0         1         0         0         0         0         0         0
@Sumon_Late_CPLX_L1D         2         2         0         0         0         0         0         0         0         0         0         0
@sumon_overall_L2C    138037         0    702417    840267       192       192
@Sumon_Early_by_class_L2C      6868    130852       309         0
@Sumon_Late_by_class_L2C         0         0         0         0

@Sumon_Early_by_cycle_L2C        70       708      3162      3026      3335     73644     50726        35      1336      1000       994         1
@Sumon_Late_by_cycle_L2C         0         0         0         0         0         0         0         0         0         0         0         0
@Sumon_Early_stream_L2C        63       565      2300      1570      1113      1248         2         0         5         2         0         0
@Sumon_Early_CS_L2C         4       140       853      1444      2217     72391     50724         9      1079       998       993         0
@Sumon_Early_CPLX_L2C         0         3         9        12         5         5         0        26       249         0         0         0
@Sumon_Late_stream_L2C         0         0         0         0         0         0         0         0         0         0         0         0
@Sumon_Late_CS_L2C         0         0         0         0         0         0         0         0         0         0         0         0
@Sumon_Late_CPLX_L2C         0         0         0         0         0         0         0         0         0         0         0         0
DRAM PAGES: 1048576
Allocated PAGES: 13917
