
*** ChampSim Multicore Out-of-Order Simulator ***

Warmup Instructions: 10000000
Simulation Instructions: 50000000
Number of CPUs: 1
LLC sets: 2048
LLC ways: 16
Off-chip DRAM Size: 4096 MB Channels: 1 Width: 64-bit Data Rate: 6400 MT/s
CPU 0 runs traces/SPEC2017/605.mcf_s-484B.champsimtrace.xz
.xz
CPU 0 Bimodal branch predictor
BTB has LRU replacement policy
ITLB has LRU replacement policy
DTLB has LRU replacement policy
STLB has LRU replacement policy
L1I has LRU replacement policy
IP Table Entries: 256
Initialize SRRIP state for L1D
IP_Table L2 entries: 256
Initialize SRRIP state for L2C
Initialize SRRIP state
Heartbeat CPU 0 instructions: 10000001 cycles: 3164817 heartbeat IPC: 3.15974 cumulative IPC: 3.15974 (Simulation time: 0 hr 13 min 23 sec) 

Warmup complete CPU 0 instructions: 10000001 cycles: 3164817 (Simulation time: 0 hr 13 min 23 sec) 

Heartbeat CPU 0 instructions: 20000000 cycles: 31993558 heartbeat IPC: 0.346876 cumulative IPC: 0.346876 (Simulation time: 0 hr 30 min 37 sec) 
Heartbeat CPU 0 instructions: 30000000 cycles: 58019741 heartbeat IPC: 0.384228 cumulative IPC: 0.364598 (Simulation time: 0 hr 47 min 13 sec) 
Heartbeat CPU 0 instructions: 40000000 cycles: 84280953 heartbeat IPC: 0.38079 cumulative IPC: 0.36984 (Simulation time: 1 hr 0 min 9 sec) 
Heartbeat CPU 0 instructions: 50000000 cycles: 111721237 heartbeat IPC: 0.364428 cumulative IPC: 0.368472 (Simulation time: 1 hr 7 min 38 sec) 
Heartbeat CPU 0 instructions: 60000003 cycles: 138411754 heartbeat IPC: 0.374665 cumulative IPC: 0.369694 (Simulation time: 1 hr 11 min 38 sec) 
Finished CPU 0 instructions: 50000002 cycles: 135246937 cumulative IPC: 0.369694 (Simulation time: 1 hr 11 min 38 sec) 

ChampSim completed all CPUs

Region of Interest Statistics

CPU 0 cumulative IPC: 0.369694 instructions: 50000002 cycles: 135246937
ITLB TOTAL     ACCESS:    8197063  HIT:    8197063  MISS:          0  HIT %:        100  MISS %:          0   MPKI: 0
ITLB LOAD TRANSLATION ACCESS:    8197063  HIT:    8197063  MISS:          0  HIT %:        100  MISS %:          0   MPKI: 0
ITLB PREFETCH  REQUESTED:          0  ISSUED:          0  USEFUL:          0  USELESS:          0
ITLB USEFUL LOAD PREFETCHES:          0 PREFETCH ISSUED TO LOWER LEVEL:          0  ACCURACY: -nan
ITLB TIMELY PREFETCHES:          0 LATE PREFETCHES: 0 DROPPED PREFETCHES: 0
ITLB PREFETCHES SAME FILL-ORIGIN LEVEL: 0 DIFFERENT FILL-ORIGIN LEVEL: 0
ITLB AVERAGE MISS LATENCY: -nan cycles
ITLB RQ	ACCESS:   10680850	FORWARD:          0	MERGED:    2483788	TO_CACHE:    8197062

DTLB TOTAL     ACCESS:   13221198  HIT:   13114226  MISS:     106972  HIT %:    99.1909  MISS %:   0.809095   MPKI: 2.13944
DTLB LOAD TRANSLATION ACCESS:   13221198  HIT:   13114226  MISS:     106972  HIT %:    99.1909  MISS %:   0.809095   MPKI: 2.13944
DTLB PREFETCH  REQUESTED:          0  ISSUED:          0  USEFUL:          0  USELESS:          0
DTLB USEFUL LOAD PREFETCHES:          0 PREFETCH ISSUED TO LOWER LEVEL:          0  ACCURACY: -nan
DTLB TIMELY PREFETCHES:          0 LATE PREFETCHES: 0 DROPPED PREFETCHES: 0
DTLB PREFETCHES SAME FILL-ORIGIN LEVEL: 0 DIFFERENT FILL-ORIGIN LEVEL: 0
DTLB AVERAGE MISS LATENCY: 37.5444 cycles
DTLB RQ	ACCESS:   23502226	FORWARD:          0	MERGED:   10267296	TO_CACHE:   13234930

STLB TOTAL     ACCESS:    3953275  HIT:    3918827  MISS:      34448  HIT %:    99.1286  MISS %:   0.871379   MPKI: 0.68896
STLB LOAD TRANSLATION ACCESS:     106972  HIT:      72532  MISS:      34440  HIT %:    67.8047  MISS %:    32.1953   MPKI: 0.6888
STLB TRANSLATION FROM L1D PREFETCHER ACCESS:    3846303  HIT:    3846295  MISS:          8  HIT %:    99.9998  MISS %: 0.000207992   MPKI: 0.00016
STLB PREFETCH  REQUESTED:          0  ISSUED:          0  USEFUL:          4  USELESS:          4
STLB USEFUL LOAD PREFETCHES:          4 PREFETCH ISSUED TO LOWER LEVEL:          0  ACCURACY: inf
STLB TIMELY PREFETCHES:          4 LATE PREFETCHES: 0 DROPPED PREFETCHES: 0
STLB PREFETCHES SAME FILL-ORIGIN LEVEL: 0 DIFFERENT FILL-ORIGIN LEVEL: 0
STLB AVERAGE MISS LATENCY: 88.6744 cycles
STLB RQ	ACCESS:    6340593	FORWARD:          0	MERGED:    2387318	TO_CACHE:    3953275

STLB Hit, L1D data hit: 0
STLB Hit, L2C data hit: 0
STLB Hit, LLC data hit: 0
STLB Hit, LLC data miss: 0
STLB STLB hints to L2: 0
L1D TOTAL     ACCESS:   29058475  HIT:   27130620  MISS:    1927855  HIT %:    93.3656  MISS %:     6.6344   MPKI: 38.5571
L1D LOAD      ACCESS:    8961626  HIT:    8191206  MISS:     770420  HIT %:    91.4031  MISS %:    8.59688   MPKI: 15.4084
L1D RFO       ACCESS:   14126632  HIT:   14024975  MISS:     101657  HIT %:    99.2804  MISS %:   0.719612   MPKI: 2.03314
L1D PREFETCH  ACCESS:    5970217  HIT:    4914439  MISS:    1055778  HIT %:    82.3159  MISS %:    17.6841   MPKI: 21.1156
L1D PREFETCH  REQUESTED:   12467334  ISSUED:   12467253  USEFUL:     341950  USELESS:     713965
L1D USEFUL LOAD PREFETCHES:     341950 PREFETCH ISSUED TO LOWER LEVEL:    1242524  ACCURACY: 27.5206
L1D TIMELY PREFETCHES:     341950 LATE PREFETCHES: 185050 DROPPED PREFETCHES: 0
L1D PREFETCHES SAME FILL-ORIGIN LEVEL: 1242524 DIFFERENT FILL-ORIGIN LEVEL: 0
L1D AVERAGE MISS LATENCY: 6.52385e+06 cycles
L1D RQ	ACCESS:   15557954	FORWARD:          0	MERGED:    6512538	TO_CACHE:    9041181
L1D WQ	ACCESS:   14570723	FORWARD:       4246	MERGED:     109678	TO_CACHE:   14461045
L1D PQ	ACCESS:    6233632	FORWARD:          0	MERGED:          0	TO_CACHE:    6233621

L1D UNIQUE REGIONS ACCESSED: 0
L1D REGIONS CONFLICTS: 0
L1D Cross Page Prefetch Requests: 0
L1D Same Page Prefetch Requests: 7429326
L1D ROI Sum of L1D PQ occupancy: 81756793
L1D PREFETCHES PUSHED FROM L2C: 0
L1I TOTAL     ACCESS:   10680849  HIT:   10680849  MISS:          0  HIT %:        100  MISS %:          0   MPKI: 0
L1I LOAD      ACCESS:   10680849  HIT:   10680849  MISS:          0  HIT %:        100  MISS %:          0   MPKI: 0
L1I PREFETCH  REQUESTED:          0  ISSUED:          0  USEFUL:          0  USELESS:          0
L1I USEFUL LOAD PREFETCHES:          0 PREFETCH ISSUED TO LOWER LEVEL:          0  ACCURACY: -nan
L1I TIMELY PREFETCHES:          0 LATE PREFETCHES: 0 DROPPED PREFETCHES: 0
L1I PREFETCHES SAME FILL-ORIGIN LEVEL: 0 DIFFERENT FILL-ORIGIN LEVEL: 0
L1I AVERAGE MISS LATENCY: -nan cycles
L1I RQ	ACCESS:   14471403	FORWARD:          0	MERGED:    3790553	TO_CACHE:   10680850

BTB TOTAL     ACCESS:    4772229  HIT:    4772195  MISS:         34  HIT %:    99.9993  MISS %: 0.000712455   MPKI: 0.00068
BTB BRANCH_DIRECT_JUMP	ACCESS:     215829  HIT:     215823  MISS:          6
BTB BRANCH_INDIRECT	ACCESS:          0  HIT:          0  MISS:          0
BTB BRANCH_CONDITIONAL	ACCESS:    4556360  HIT:    4556336  MISS:         24
BTB BRANCH_DIRECT_CALL	ACCESS:         20  HIT:         18  MISS:          2
BTB BRANCH_INDIRECT_CALL	ACCESS:          0  HIT:          0  MISS:          0
BTB BRANCH_RETURN	ACCESS:         20  HIT:         18  MISS:          2
BTB BRANCH_OTHER ACCESS:          0  HIT:          0  MISS:          0

L2C TOTAL     ACCESS:    2561864  HIT:     871818  MISS:    1690046  HIT %:    34.0306  MISS %:    65.9694   MPKI: 33.8009
L2C LOAD      ACCESS:     585367  HIT:      35345  MISS:     550022  HIT %:    6.03809  MISS %:    93.9619   MPKI: 11.0004
L2C DATA LOAD MPKI: 11.0004
L2C INSTRUCTION LOAD MPKI: 0
L2C RFO       ACCESS:      99961  HIT:       2073  MISS:      97888  HIT %:    2.07381  MISS %:    97.9262   MPKI: 1.95776
L2C PREFETCH  ACCESS:    1528579  HIT:     495466  MISS:    1033113  HIT %:    32.4135  MISS %:    67.5865   MPKI: 20.6623
L2C DATA PREFETCH MPKI: 20.6623
L2C INSTRUCTION PREFETCH MPKI: 0
L2C WRITEBACK ACCESS:     313426  HIT:     309508  MISS:       3918  HIT %:    98.7499  MISS %:    1.25006   MPKI: 0.07836
L2C LOAD TRANSLATION ACCESS:      34523  HIT:      29425  MISS:       5098  HIT %:     85.233  MISS %:     14.767   MPKI: 0.10196
L2C TRANSLATION FROM L1D PREFETCHER ACCESS:          8  HIT:          1  MISS:          7  HIT %:       12.5  MISS %:       87.5   MPKI: 0.00014
L2C PREFETCH  REQUESTED:     366004  ISSUED:     366004  USEFUL:      23868  USELESS:    1009077
L2C USEFUL LOAD PREFETCHES:      23868 PREFETCH ISSUED TO LOWER LEVEL:    1033171  ACCURACY: 2.31017
L2C TIMELY PREFETCHES:      23868 LATE PREFETCHES: 56 DROPPED PREFETCHES: 0
L2C PREFETCHES SAME FILL-ORIGIN LEVEL: 129872 DIFFERENT FILL-ORIGIN LEVEL: 0
L2C AVERAGE MISS LATENCY: 188.751 cycles
L2C RQ	ACCESS:     719865	FORWARD:          0	MERGED:          0	TO_CACHE:     719860
L2C WQ	ACCESS:     313427	FORWARD:          8	MERGED:          0	TO_CACHE:     313427
L2C PQ	ACCESS:    1608528	FORWARD:          0	MERGED:      15608	TO_CACHE:    1592917

L2C Instructions Evicting Data 0
L2C Translations Evicting Data 5100
L2C Data Evicting Data 1675948
L2C Instructions Evicting Instructions 0
L2C Translations Evicting Instructions 0
L2C Data Evicting Instructions 0
L2C Instructions Evicting Translations 0
L2C Translations Evicting Translations 5
L2C Data Evicting Translations 5075
L2C Dense regions hint from L2: 0
PSCL5 TOTAL     ACCESS:      34448  HIT:      34448  MISS:          0  HIT %:        100  MISS %:          0   MPKI: 0
PSCL5 LOAD TRANSLATION ACCESS:      34440  HIT:      34440  MISS:          0  HIT %:        100  MISS %:          0   MPKI: 0
PSCL5 TRANSLATION FROM L1D PREFETCHER ACCESS:          8  HIT:          8  MISS:          0  HIT %:        100  MISS %:          0   MPKI: 0
PSCL5 PREFETCH  REQUESTED:          0  ISSUED:          0  USEFUL:          0  USELESS:          0
PSCL5 USEFUL LOAD PREFETCHES:          0 PREFETCH ISSUED TO LOWER LEVEL:          0  ACCURACY: -nan
PSCL5 TIMELY PREFETCHES:          0 LATE PREFETCHES: 0 DROPPED PREFETCHES: 0
PSCL5 PREFETCHES SAME FILL-ORIGIN LEVEL: 0 DIFFERENT FILL-ORIGIN LEVEL: 0

PSCL4 TOTAL     ACCESS:      34448  HIT:      34448  MISS:          0  HIT %:        100  MISS %:          0   MPKI: 0
PSCL4 LOAD TRANSLATION ACCESS:      34440  HIT:      34440  MISS:          0  HIT %:        100  MISS %:          0   MPKI: 0
PSCL4 TRANSLATION FROM L1D PREFETCHER ACCESS:          8  HIT:          8  MISS:          0  HIT %:        100  MISS %:          0   MPKI: 0
PSCL4 PREFETCH  REQUESTED:          0  ISSUED:          0  USEFUL:          0  USELESS:          0
PSCL4 USEFUL LOAD PREFETCHES:          0 PREFETCH ISSUED TO LOWER LEVEL:          0  ACCURACY: -nan
PSCL4 TIMELY PREFETCHES:          0 LATE PREFETCHES: 0 DROPPED PREFETCHES: 0
PSCL4 PREFETCHES SAME FILL-ORIGIN LEVEL: 0 DIFFERENT FILL-ORIGIN LEVEL: 0

PSCL3 TOTAL     ACCESS:      34448  HIT:      34448  MISS:          0  HIT %:        100  MISS %:          0   MPKI: 0
PSCL3 LOAD TRANSLATION ACCESS:      34440  HIT:      34440  MISS:          0  HIT %:        100  MISS %:          0   MPKI: 0
PSCL3 TRANSLATION FROM L1D PREFETCHER ACCESS:          8  HIT:          8  MISS:          0  HIT %:        100  MISS %:          0   MPKI: 0
PSCL3 PREFETCH  REQUESTED:          0  ISSUED:          0  USEFUL:          0  USELESS:          0
PSCL3 USEFUL LOAD PREFETCHES:          0 PREFETCH ISSUED TO LOWER LEVEL:          0  ACCURACY: -nan
PSCL3 TIMELY PREFETCHES:          0 LATE PREFETCHES: 0 DROPPED PREFETCHES: 0
PSCL3 PREFETCHES SAME FILL-ORIGIN LEVEL: 0 DIFFERENT FILL-ORIGIN LEVEL: 0

PSCL2 TOTAL     ACCESS:      34448  HIT:      34334  MISS:        114  HIT %:    99.6691  MISS %:   0.330934   MPKI: 0.00228
PSCL2 LOAD TRANSLATION ACCESS:      34440  HIT:      34326  MISS:        114  HIT %:     99.669  MISS %:    0.33101   MPKI: 0.00228
PSCL2 TRANSLATION FROM L1D PREFETCHER ACCESS:          8  HIT:          8  MISS:          0  HIT %:        100  MISS %:          0   MPKI: 0
PSCL2 PREFETCH  REQUESTED:          0  ISSUED:          0  USEFUL:          0  USELESS:          0
PSCL2 USEFUL LOAD PREFETCHES:          0 PREFETCH ISSUED TO LOWER LEVEL:          0  ACCURACY: -nan
PSCL2 TIMELY PREFETCHES:          0 LATE PREFETCHES: 0 DROPPED PREFETCHES: 0
PSCL2 PREFETCHES SAME FILL-ORIGIN LEVEL: 0 DIFFERENT FILL-ORIGIN LEVEL: 0

LLC TOTAL     ACCESS:    1983983  HIT:     276399  MISS:    1707584  HIT %:    13.9315  MISS %:    86.0685   MPKI: 34.1517
LLC LOAD      ACCESS:     549966  HIT:       1804  MISS:     548162  HIT %:    0.32802  MISS %:     99.672   MPKI: 10.9632
LLC RFO       ACCESS:      97888  HIT:         46  MISS:      97842  HIT %:  0.0469925  MISS %:     99.953   MPKI: 1.95684
LLC PREFETCH  ACCESS:    1033169  HIT:      16362  MISS:    1016807  HIT %:    1.58367  MISS %:    98.4163   MPKI: 20.3361
LLC WRITEBACK ACCESS:     297855  HIT:     257930  MISS:      39925  HIT %:    86.5958  MISS %:    13.4042   MPKI: 0.7985
LLC LOAD TRANSLATION ACCESS:       5098  HIT:        257  MISS:       4841  HIT %:    5.04119  MISS %:    94.9588   MPKI: 0.09682
LLC TRANSLATION FROM L1D PREFETCHER ACCESS:          7  HIT:          0  MISS:          7  HIT %:          0  MISS %:        100   MPKI: 0.00014
LLC PREFETCH  REQUESTED:          0  ISSUED:          0  USEFUL:       1220  USELESS:    1012439
LLC USEFUL LOAD PREFETCHES:       1220 PREFETCH ISSUED TO LOWER LEVEL:    1016809  ACCURACY: 0.119983
LLC TIMELY PREFETCHES:       1220 LATE PREFETCHES: 0 DROPPED PREFETCHES: 0
LLC PREFETCHES SAME FILL-ORIGIN LEVEL: 0 DIFFERENT FILL-ORIGIN LEVEL: 0
LLC AVERAGE MISS LATENCY: 157.066 cycles
LLC RQ	ACCESS:     652960	FORWARD:          0	MERGED:          0	TO_CACHE:     652960
LLC WQ	ACCESS:     297855	FORWARD:          0	MERGED:          0	TO_CACHE:     297855
LLC PQ	ACCESS:    1033171	FORWARD:          0	MERGED:          0	TO_CACHE:    1033171

LLC Dense regions hint to LLC: 0

RAW hits: 263621
Loads Generated: 15821575
Loads sent to L1D: 15557954
Stores Generated: 14570745
Stores sent to L1D: 14570723
Major fault: 0 Minor fault: 18248
Allocated PAGES: 18248

stream: 
stream:times selected: 6981941
stream:pref_filled: 566758
stream:pref_useful: 119840
stream:pref_late: 70679
stream:misses: 112229
stream:misses_by_poll: 0

CS: 
CS:times selected: 206608
CS:pref_filled: 135036
CS:pref_useful: 133790
CS:pref_late: 424
CS:misses: 1131
CS:misses_by_poll: 150

CPLX: 
CPLX:times selected: 6716160
CPLX:pref_filled: 527914
CPLX:pref_useful: 144936
CPLX:pref_late: 131188
CPLX:misses: 759242
CPLX:misses_by_poll: 3909

NL_L1: 
NL:times selected: 75492
NL:pref_filled: 7841
NL:pref_useful: 4037
NL:pref_late: 778
NL:misses: 16276
NL:misses_by_poll: 3

total selections: 13980201
total_filled: 1055778
total_useful: 341950
total_late: 205354
total_polluted: 4062
total_misses_after_warmup: 849976
conflicts: 19244
Degree Incremented Times: 41664
Degree Decremented Times: 124433

L1 IP Table Write Accesses: 8960287
L1 IP Table Read Accesses: 8941043
L1 RST Write Accesses: 5795159
L1 RST Read Accesses: 11590318
L1 CSPT Write Accesses: 5795159
L1 CSPT Read Accesses: 11365714
L1 RR Filter Tag Write Accesses: 6233713
L1 RR Filter Tag Read Accesses: 279977089
L1 IP Table Tag Write Accesses: 9041182
L1 IP Table Tag Read Accesses: 9041182
L1 RST Tag Write Accesses: 0
L1 RST Tag Read Accesses: 57247409
L1 RR Filter Write Accesses: 0
L1 RR Filter Read Accesses: 9173790
test: 3965771
L2 IP Table Read Accesses: 3549145
L2 IP Table Write Accesses: 3020782
L2 IP Table Tag Read Accesses: 1802875
L2 IP Table Tag Write Accesses: 1802875

DRAM Statistics
 CHANNEL 0
 RQ ROW_BUFFER_HIT:     800169  ROW_BUFFER_MISS:     867491
 DBUS_CONGESTED:        965
 WQ ROW_BUFFER_HIT:      65508  ROW_BUFFER_MISS:     240157  FULL:          0

 AVG_CONGESTED_CYCLE: 5
 All warmup complete: 2
Channel 0 Bank busy for read cycles: 0
Channel 0 Bank busy for write cycles: 0
Channel 0
Rank 0
0banks busy for read cycles: 43367175
0banks busy for write cycles: 46544
1banks busy for read cycles: 29009741
1banks busy for write cycles: 7520394
2banks busy for read cycles: 17090842
2banks busy for write cycles: 4001326
3banks busy for read cycles: 9638550
3banks busy for write cycles: 2509338
4banks busy for read cycles: 4666469
4banks busy for write cycles: 1661463
5banks busy for read cycles: 2979185
5banks busy for write cycles: 1091101
6banks busy for read cycles: 2392922
6banks busy for write cycles: 752575
7banks busy for read cycles: 2018454
7banks busy for write cycles: 773971
8banks busy for read cycles: 2085105
8banks busy for write cycles: 3641783

CPU 0 Branch Prediction Accuracy: 98.133% MPKI: 1.81274 Average ROB Occupancy at Mispredict: 211.254
Branch types
NOT_BRANCH: 45145344 90.2907%
BRANCH_DIRECT_JUMP: 215829 0.431658%
BRANCH_INDIRECT: 0 0%
BRANCH_CONDITIONAL: 4638791 9.27758%
BRANCH_DIRECT_CALL: 20 4e-05%
BRANCH_INDIRECT_CALL: 0 0%
BRANCH_RETURN: 20 4e-05%
BRANCH_OTHER: 0 0%

@sumon_overall_L1D    341950    185050    713965   1055778  12467253  12467334
@Sumon_Early_by_class_L1D     95865    120119    122531       734
@Sumon_Late_by_class_L1D     65359       403    116679       734

@Sumon_Early_by_cycle_L1D     77108     41372     41145     24393     14689     37898     15392     21808     34979     19869      9115      4182
@Sumon_Late_by_cycle_L1D     67319     91409     24622      1645        53         2         0         0         0         0         0         0
@Sumon_Early_stream_L1D     45240     19897      5663       555        35      6491      4565      4631      3929      3071       985       803
@Sumon_Early_CS_L1D      6459      5201     23612     20987     13720     18273      4543      9194     17869       259         1         1
@Sumon_Early_CPLX_L1D     23558     15461     11677      2825       930     13062      6223      7861     13041     16440      8101      3352
@Sumon_Late_stream_L1D     32875     27543      4461       467        13         0         0         0         0         0         0         0
@Sumon_Late_CS_L1D       198       174        26         4         1         0         0         0         0         0         0         0
@Sumon_Late_CPLX_L1D     31920     63457     20087      1174        39         2         0         0         0         0         0         0
@sumon_overall_L2C     23868        56   1009077   1033120    366004    366004
@Sumon_Early_by_class_L2C      2626       710     17996         0
@Sumon_Late_by_class_L2C         0        48         0         0

@Sumon_Early_by_cycle_L2C        31        36       101       133       140       327       202       466      1768      5237      4105     11322
@Sumon_Late_by_cycle_L2C        33        15         8         0         0         0         0         0         0         0         0         0
@Sumon_Early_stream_L2C         0         1         2         0         0        29        21        61       208       481       493      1330
@Sumon_Early_CS_L2C        30        34        98       132       139       178        41         7        25        25         1         0
@Sumon_Early_CPLX_L2C         0         1         1         0         1        43        54       191      1178      4089      3251      9187
@Sumon_Late_stream_L2C         0         0         0         0         0         0         0         0         0         0         0         0
@Sumon_Late_CS_L2C        29        12         7         0         0         0         0         0         0         0         0         0
@Sumon_Late_CPLX_L2C         0         0         0         0         0         0         0         0         0         0         0         0
DRAM PAGES: 1048576
Allocated PAGES: 18248
