
*** ChampSim Multicore Out-of-Order Simulator ***

Warmup Instructions: 10000000
Simulation Instructions: 50000000
Number of CPUs: 1
LLC sets: 2048
LLC ways: 16
Off-chip DRAM Size: 4096 MB Channels: 1 Width: 64-bit Data Rate: 6400 MT/s
CPU 0 runs traces/SPEC2017/607.cactuBSSN_s-2421B.champsimtrace.xz
.xz
CPU 0 Bimodal branch predictor
BTB has LRU replacement policy
ITLB has LRU replacement policy
DTLB has LRU replacement policy
STLB has LRU replacement policy
L1I has LRU replacement policy
IP Table Entries: 256
Initialize SRRIP state for L1D
IP_Table L2 entries: 256
Initialize SRRIP state for L2C
Initialize SRRIP state
Heartbeat CPU 0 instructions: 10000002 cycles: 3585996 heartbeat IPC: 2.78863 cumulative IPC: 2.78863 (Simulation time: 0 hr 15 min 14 sec) 

Warmup complete CPU 0 instructions: 10000002 cycles: 3585996 (Simulation time: 0 hr 15 min 14 sec) 

Heartbeat CPU 0 instructions: 20000001 cycles: 14593789 heartbeat IPC: 0.908447 cumulative IPC: 0.908447 (Simulation time: 0 hr 25 min 50 sec) 
Heartbeat CPU 0 instructions: 30000000 cycles: 25609793 heartbeat IPC: 0.90777 cumulative IPC: 0.908109 (Simulation time: 0 hr 36 min 18 sec) 
Heartbeat CPU 0 instructions: 40000001 cycles: 36602691 heartbeat IPC: 0.909678 cumulative IPC: 0.908631 (Simulation time: 0 hr 46 min 41 sec) 
Heartbeat CPU 0 instructions: 50000000 cycles: 47602360 heartbeat IPC: 0.909118 cumulative IPC: 0.908753 (Simulation time: 0 hr 55 min 59 sec) 
Heartbeat CPU 0 instructions: 60000003 cycles: 58753061 heartbeat IPC: 0.896805 cumulative IPC: 0.906338 (Simulation time: 1 hr 2 min 7 sec) 
Finished CPU 0 instructions: 50000001 cycles: 55167065 cumulative IPC: 0.906338 (Simulation time: 1 hr 2 min 7 sec) 

ChampSim completed all CPUs

Region of Interest Statistics

CPU 0 cumulative IPC: 0.906338 instructions: 50000001 cycles: 55167065
ITLB TOTAL     ACCESS:    6917153  HIT:    6917093  MISS:         60  HIT %:    99.9991  MISS %: 0.000867409   MPKI: 0.0012
ITLB LOAD TRANSLATION ACCESS:    6917153  HIT:    6917093  MISS:         60  HIT %:    99.9991  MISS %: 0.000867409   MPKI: 0.0012
ITLB PREFETCH  REQUESTED:          0  ISSUED:          0  USEFUL:          0  USELESS:          0
ITLB USEFUL LOAD PREFETCHES:          0 PREFETCH ISSUED TO LOWER LEVEL:          0  ACCURACY: -nan
ITLB TIMELY PREFETCHES:          0 LATE PREFETCHES: 0 DROPPED PREFETCHES: 0
ITLB PREFETCHES SAME FILL-ORIGIN LEVEL: 0 DIFFERENT FILL-ORIGIN LEVEL: 0
ITLB AVERAGE MISS LATENCY: 346.817 cycles
ITLB RQ	ACCESS:    8512851	FORWARD:          0	MERGED:    1595686	TO_CACHE:    6917165

DTLB TOTAL     ACCESS:   13497156  HIT:   11278104  MISS:    2219052  HIT %:    83.5591  MISS %:    16.4409   MPKI: 44.381
DTLB LOAD TRANSLATION ACCESS:   13497156  HIT:   11278104  MISS:    2219052  HIT %:    83.5591  MISS %:    16.4409   MPKI: 44.381
DTLB PREFETCH  REQUESTED:          0  ISSUED:          0  USEFUL:          0  USELESS:          0
DTLB USEFUL LOAD PREFETCHES:          0 PREFETCH ISSUED TO LOWER LEVEL:          0  ACCURACY: -nan
DTLB TIMELY PREFETCHES:          0 LATE PREFETCHES: 0 DROPPED PREFETCHES: 0
DTLB PREFETCHES SAME FILL-ORIGIN LEVEL: 0 DIFFERENT FILL-ORIGIN LEVEL: 0
DTLB AVERAGE MISS LATENCY: 10.1873 cycles
DTLB RQ	ACCESS:   18943276	FORWARD:          0	MERGED:    5236520	TO_CACHE:   13706756

STLB TOTAL     ACCESS:    2246823  HIT:    2243765  MISS:       3058  HIT %:    99.8639  MISS %:   0.136103   MPKI: 0.06116
STLB LOAD TRANSLATION ACCESS:    2219112  HIT:    2216054  MISS:       3058  HIT %:    99.8622  MISS %:   0.137803   MPKI: 0.06116
STLB TRANSLATION FROM L1D PREFETCHER ACCESS:      27711  HIT:      27711  MISS:          0  HIT %:        100  MISS %:          0   MPKI: 0
STLB PREFETCH  REQUESTED:          0  ISSUED:          0  USEFUL:          0  USELESS:          0
STLB USEFUL LOAD PREFETCHES:          0 PREFETCH ISSUED TO LOWER LEVEL:          0  ACCURACY: -nan
STLB TIMELY PREFETCHES:          0 LATE PREFETCHES: 0 DROPPED PREFETCHES: 0
STLB PREFETCHES SAME FILL-ORIGIN LEVEL: 0 DIFFERENT FILL-ORIGIN LEVEL: 0
STLB AVERAGE MISS LATENCY: 622.35 cycles
STLB RQ	ACCESS:    2248075	FORWARD:          0	MERGED:       1252	TO_CACHE:    2246823

STLB Hit, L1D data hit: 0
STLB Hit, L2C data hit: 0
STLB Hit, LLC data hit: 0
STLB Hit, LLC data miss: 0
STLB STLB hints to L2: 0
L1D TOTAL     ACCESS:   18867743  HIT:   14920350  MISS:    3947393  HIT %:    79.0786  MISS %:    20.9214   MPKI: 78.9479
L1D LOAD      ACCESS:   14557429  HIT:   10926449  MISS:    3630980  HIT %:    75.0575  MISS %:    24.9425   MPKI: 72.6196
L1D RFO       ACCESS:    4281366  HIT:    3990835  MISS:     290531  HIT %:    93.2141  MISS %:    6.78594   MPKI: 5.81062
L1D PREFETCH  ACCESS:      28948  HIT:       3066  MISS:      25882  HIT %:    10.5914  MISS %:    89.4086   MPKI: 0.51764
L1D PREFETCH  REQUESTED:      57926  ISSUED:      57926  USEFUL:       2519  USELESS:      23318
L1D USEFUL LOAD PREFETCHES:       2519 PREFETCH ISSUED TO LOWER LEVEL:      27275  ACCURACY: 9.23556
L1D TIMELY PREFETCHES:       2519 LATE PREFETCHES: 3 DROPPED PREFETCHES: 0
L1D PREFETCHES SAME FILL-ORIGIN LEVEL: 27275 DIFFERENT FILL-ORIGIN LEVEL: 0
L1D AVERAGE MISS LATENCY: 61.2272 cycles
L1D RQ	ACCESS:   18622539	FORWARD:          0	MERGED:    3967592	TO_CACHE:   14646432
L1D WQ	ACCESS:    4319703	FORWARD:       8515	MERGED:      22859	TO_CACHE:    4296844
L1D PQ	ACCESS:      28963	FORWARD:          0	MERGED:          0	TO_CACHE:      28963

L1D UNIQUE REGIONS ACCESSED: 0
L1D REGIONS CONFLICTS: 0
L1D Cross Page Prefetch Requests: 0
L1D Same Page Prefetch Requests: 30452
L1D ROI Sum of L1D PQ occupancy: 399804
L1D PREFETCHES PUSHED FROM L2C: 0
L1I TOTAL     ACCESS:    7957307  HIT:    6867550  MISS:    1089757  HIT %:     86.305  MISS %:     13.695   MPKI: 21.7951
L1I LOAD      ACCESS:    7957307  HIT:    6867550  MISS:    1089757  HIT %:     86.305  MISS %:     13.695   MPKI: 21.7951
L1I PREFETCH  REQUESTED:          0  ISSUED:          0  USEFUL:          0  USELESS:          0
L1I USEFUL LOAD PREFETCHES:          0 PREFETCH ISSUED TO LOWER LEVEL:          0  ACCURACY: -nan
L1I TIMELY PREFETCHES:          0 LATE PREFETCHES: 0 DROPPED PREFETCHES: 0
L1I PREFETCHES SAME FILL-ORIGIN LEVEL: 0 DIFFERENT FILL-ORIGIN LEVEL: 0
L1I AVERAGE MISS LATENCY: 14.2616 cycles
L1I RQ	ACCESS:   12018870	FORWARD:          0	MERGED:    3506019	TO_CACHE:    8512851

BTB TOTAL     ACCESS:     280550  HIT:     262606  MISS:      17944  HIT %:     93.604  MISS %:    6.39601   MPKI: 0.35888
BTB BRANCH_DIRECT_JUMP	ACCESS:      48856  HIT:      48796  MISS:         60
BTB BRANCH_INDIRECT	ACCESS:      10100  HIT:      10021  MISS:         79
BTB BRANCH_CONDITIONAL	ACCESS:     122188  HIT:     121715  MISS:        473
BTB BRANCH_DIRECT_CALL	ACCESS:      49700  HIT:      49036  MISS:        664
BTB BRANCH_INDIRECT_CALL	ACCESS:          3  HIT:          0  MISS:          3
BTB BRANCH_RETURN	ACCESS:      49703  HIT:      33038  MISS:      16665
BTB BRANCH_OTHER ACCESS:          0  HIT:          0  MISS:          0

L2C TOTAL     ACCESS:    7762221  HIT:    7444412  MISS:     317809  HIT %:    95.9057  MISS %:     4.0943   MPKI: 6.35618
L2C LOAD      ACCESS:    4703303  HIT:    4630237  MISS:      73066  HIT %:    98.4465  MISS %:     1.5535   MPKI: 1.46132
L2C DATA LOAD MPKI: 1.42844
L2C INSTRUCTION LOAD MPKI: 0.03288
L2C RFO       ACCESS:     290343  HIT:     265147  MISS:      25196  HIT %:     91.322  MISS %:    8.67801   MPKI: 0.50392
L2C PREFETCH  ACCESS:    2463596  HIT:    2248554  MISS:     215042  HIT %:    91.2712  MISS %:    8.72879   MPKI: 4.30084
L2C DATA PREFETCH MPKI: 4.30084
L2C INSTRUCTION PREFETCH MPKI: 0
L2C WRITEBACK ACCESS:     300508  HIT:     300168  MISS:        340  HIT %:    99.8869  MISS %:   0.113142   MPKI: 0.0068
L2C LOAD TRANSLATION ACCESS:       4471  HIT:        306  MISS:       4165  HIT %:    6.84411  MISS %:    93.1559   MPKI: 0.0833
L2C PREFETCH  REQUESTED:    2469081  ISSUED:    2442740  USEFUL:     196969  USELESS:      17942
L2C USEFUL LOAD PREFETCHES:     196969 PREFETCH ISSUED TO LOWER LEVEL:     215058  ACCURACY: 91.5888
L2C TIMELY PREFETCHES:     196969 LATE PREFETCHES: 16 DROPPED PREFETCHES: 0
L2C PREFETCHES SAME FILL-ORIGIN LEVEL: 198904 DIFFERENT FILL-ORIGIN LEVEL: 0
L2C AVERAGE MISS LATENCY: 196.041 cycles
L2C RQ	ACCESS:    5015736	FORWARD:          0	MERGED:          0	TO_CACHE:    4998117
L2C WQ	ACCESS:     300508	FORWARD:      17628	MERGED:          0	TO_CACHE:     300508
L2C PQ	ACCESS:    2468625	FORWARD:          0	MERGED:       4387	TO_CACHE:    2464229

L2C Instructions Evicting Data 1533
L2C Translations Evicting Data 4065
L2C Data Evicting Data 305937
L2C Instructions Evicting Instructions 94
L2C Translations Evicting Instructions 25
L2C Data Evicting Instructions 1675
L2C Instructions Evicting Translations 17
L2C Translations Evicting Translations 75
L2C Data Evicting Translations 4048
L2C Dense regions hint from L2: 0
PSCL5 TOTAL     ACCESS:       3058  HIT:       3058  MISS:          0  HIT %:        100  MISS %:          0   MPKI: 0
PSCL5 LOAD TRANSLATION ACCESS:       3058  HIT:       3058  MISS:          0  HIT %:        100  MISS %:          0   MPKI: 0
PSCL5 PREFETCH  REQUESTED:          0  ISSUED:          0  USEFUL:          0  USELESS:          0
PSCL5 USEFUL LOAD PREFETCHES:          0 PREFETCH ISSUED TO LOWER LEVEL:          0  ACCURACY: -nan
PSCL5 TIMELY PREFETCHES:          0 LATE PREFETCHES: 0 DROPPED PREFETCHES: 0
PSCL5 PREFETCHES SAME FILL-ORIGIN LEVEL: 0 DIFFERENT FILL-ORIGIN LEVEL: 0

PSCL4 TOTAL     ACCESS:       3058  HIT:       3058  MISS:          0  HIT %:        100  MISS %:          0   MPKI: 0
PSCL4 LOAD TRANSLATION ACCESS:       3058  HIT:       3058  MISS:          0  HIT %:        100  MISS %:          0   MPKI: 0
PSCL4 PREFETCH  REQUESTED:          0  ISSUED:          0  USEFUL:          0  USELESS:          0
PSCL4 USEFUL LOAD PREFETCHES:          0 PREFETCH ISSUED TO LOWER LEVEL:          0  ACCURACY: -nan
PSCL4 TIMELY PREFETCHES:          0 LATE PREFETCHES: 0 DROPPED PREFETCHES: 0
PSCL4 PREFETCHES SAME FILL-ORIGIN LEVEL: 0 DIFFERENT FILL-ORIGIN LEVEL: 0

PSCL3 TOTAL     ACCESS:       3058  HIT:       3053  MISS:          5  HIT %:    99.8365  MISS %:   0.163506   MPKI: 0.0001
PSCL3 LOAD TRANSLATION ACCESS:       3058  HIT:       3053  MISS:          5  HIT %:    99.8365  MISS %:   0.163506   MPKI: 0.0001
PSCL3 PREFETCH  REQUESTED:          0  ISSUED:          0  USEFUL:          0  USELESS:          0
PSCL3 USEFUL LOAD PREFETCHES:          0 PREFETCH ISSUED TO LOWER LEVEL:          0  ACCURACY: -nan
PSCL3 TIMELY PREFETCHES:          0 LATE PREFETCHES: 0 DROPPED PREFETCHES: 0
PSCL3 PREFETCHES SAME FILL-ORIGIN LEVEL: 0 DIFFERENT FILL-ORIGIN LEVEL: 0

PSCL2 TOTAL     ACCESS:       3058  HIT:       1588  MISS:       1470  HIT %:    51.9294  MISS %:    48.0706   MPKI: 0.0294
PSCL2 LOAD TRANSLATION ACCESS:       3058  HIT:       1588  MISS:       1470  HIT %:    51.9294  MISS %:    48.0706   MPKI: 0.0294
PSCL2 PREFETCH  REQUESTED:          0  ISSUED:          0  USEFUL:          0  USELESS:          0
PSCL2 USEFUL LOAD PREFETCHES:          0 PREFETCH ISSUED TO LOWER LEVEL:          0  ACCURACY: -nan
PSCL2 TIMELY PREFETCHES:          0 LATE PREFETCHES: 0 DROPPED PREFETCHES: 0
PSCL2 PREFETCHES SAME FILL-ORIGIN LEVEL: 0 DIFFERENT FILL-ORIGIN LEVEL: 0

LLC TOTAL     ACCESS:     350452  HIT:     170597  MISS:     179855  HIT %:    48.6791  MISS %:    51.3209   MPKI: 3.5971
LLC LOAD      ACCESS:      73049  HIT:      37336  MISS:      35713  HIT %:    51.1109  MISS %:    48.8891   MPKI: 0.71426
LLC RFO       ACCESS:      25195  HIT:        531  MISS:      24664  HIT %:    2.10756  MISS %:    97.8924   MPKI: 0.49328
LLC PREFETCH  ACCESS:     215058  HIT:      96644  MISS:     118414  HIT %:    44.9386  MISS %:    55.0614   MPKI: 2.36828
LLC WRITEBACK ACCESS:      32985  HIT:      32665  MISS:        320  HIT %:    99.0299  MISS %:   0.970138   MPKI: 0.0064
LLC LOAD TRANSLATION ACCESS:       4165  HIT:       3421  MISS:        744  HIT %:    82.1369  MISS %:    17.8631   MPKI: 0.01488
LLC PREFETCH  REQUESTED:          0  ISSUED:          0  USEFUL:      18237  USELESS:      91732
LLC USEFUL LOAD PREFETCHES:      18237 PREFETCH ISSUED TO LOWER LEVEL:     118414  ACCURACY: 15.4011
LLC TIMELY PREFETCHES:      18237 LATE PREFETCHES: 0 DROPPED PREFETCHES: 0
LLC PREFETCHES SAME FILL-ORIGIN LEVEL: 0 DIFFERENT FILL-ORIGIN LEVEL: 0
LLC AVERAGE MISS LATENCY: 291.619 cycles
LLC RQ	ACCESS:     102411	FORWARD:          0	MERGED:          0	TO_CACHE:     102409
LLC WQ	ACCESS:      32985	FORWARD:          2	MERGED:          0	TO_CACHE:      32985
LLC PQ	ACCESS:     215058	FORWARD:          0	MERGED:          0	TO_CACHE:     215058

LLC Dense regions hint to LLC: 0

RAW hits: 104578
Loads Generated: 18727117
Loads sent to L1D: 18622539
Stores Generated: 4319811
Stores sent to L1D: 4319809
Major fault: 0 Minor fault: 3837
Allocated PAGES: 3837

stream: 
stream:times selected: 36368
stream:pref_filled: 22006
stream:pref_useful: 2412
stream:pref_late: 3
stream:misses: 507
stream:misses_by_poll: 0

CS: 
CS:times selected: 18584
CS:pref_filled: 308
CS:pref_useful: 21
CS:pref_late: 2
CS:misses: 2443
CS:misses_by_poll: 0

CPLX: 
CPLX:times selected: 34472
CPLX:pref_filled: 539
CPLX:pref_useful: 123
CPLX:pref_late: 0
CPLX:misses: 137988
CPLX:misses_by_poll: 0

NL_L1: 
NL:times selected: 7
NL:pref_filled: 5
NL:pref_useful: 3
NL:pref_late: 0
NL:misses: 31
NL:misses_by_poll: 0

total selections: 89431
total_filled: 25882
total_useful: 2519
total_late: 5
total_polluted: 0
total_misses_after_warmup: 3719991
conflicts: 6998303
Degree Incremented Times: 0
Degree Decremented Times: 902462

L1 IP Table Write Accesses: 7398675
L1 IP Table Read Accesses: 400372
L1 RST Write Accesses: 34222
L1 RST Read Accesses: 68444
L1 CSPT Write Accesses: 34222
L1 CSPT Read Accesses: 68198
L1 RR Filter Tag Write Accesses: 28963
L1 RR Filter Tag Read Accesses: 2483290
L1 IP Table Tag Write Accesses: 14646440
L1 IP Table Tag Read Accesses: 14646440
L1 RST Tag Write Accesses: 0
L1 RST Tag Read Accesses: 291332
L1 RR Filter Write Accesses: 0
L1 RR Filter Read Accesses: 82823
test: 2343
L2 IP Table Read Accesses: 4762546
L2 IP Table Write Accesses: 5852889
L2 IP Table Tag Read Accesses: 3635085
L2 IP Table Tag Write Accesses: 3635085

DRAM Statistics
 CHANNEL 0
 RQ ROW_BUFFER_HIT:      98380  ROW_BUFFER_MISS:      81155
 DBUS_CONGESTED:        172
 WQ ROW_BUFFER_HIT:       7364  ROW_BUFFER_MISS:      24014  FULL:          0

 AVG_CONGESTED_CYCLE: 4
 All warmup complete: 2
Channel 0 Bank busy for read cycles: 0
Channel 0 Bank busy for write cycles: 0
Channel 0
Rank 0
0banks busy for read cycles: 43683703
0banks busy for write cycles: 10371
1banks busy for read cycles: 4871159
1banks busy for write cycles: 1575795
2banks busy for read cycles: 1588502
2banks busy for write cycles: 401152
3banks busy for read cycles: 1013150
3banks busy for write cycles: 252113
4banks busy for read cycles: 613055
4banks busy for write cycles: 202333
5banks busy for read cycles: 358143
5banks busy for write cycles: 153630
6banks busy for read cycles: 179849
6banks busy for write cycles: 97122
7banks busy for read cycles: 90620
7banks busy for write cycles: 57060
8banks busy for read cycles: 6331
8banks busy for write cycles: 12978

CPU 0 Branch Prediction Accuracy: 99.2795% MPKI: 0.0593 Average ROB Occupancy at Mispredict: 16.461
Branch types
NOT_BRANCH: 49588170 99.1763%
BRANCH_DIRECT_JUMP: 48856 0.097712%
BRANCH_INDIRECT: 10100 0.0202%
BRANCH_CONDITIONAL: 253148 0.506296%
BRANCH_DIRECT_CALL: 49700 0.0994%
BRANCH_INDIRECT_CALL: 3 6e-06%
BRANCH_RETURN: 49703 0.099406%
BRANCH_OTHER: 0 0%

@sumon_overall_L1D      2519         3     23318     25882     57926     57926
@Sumon_Early_by_class_L1D      2248        16        51         0
@Sumon_Late_by_class_L1D         1         2         0         0

@Sumon_Early_by_cycle_L1D        20        14        19         7         3        18         7        21       154      2215        21        20
@Sumon_Late_by_cycle_L1D         2         1         0         0         0         0         0         0         0         0         0         0
@Sumon_Early_stream_L1D        18        11        11         5         3        13         4        18       134      2010        11        10
@Sumon_Early_CS_L1D         1         0         6         1         0         0         1         0         0         2         2         3
@Sumon_Early_CPLX_L1D         1         0         2         1         0         4         1         0         2        26         7         7
@Sumon_Late_stream_L1D         1         0         0         0         0         0         0         0         0         0         0         0
@Sumon_Late_CS_L1D         1         1         0         0         0         0         0         0         0         0         0         0
@Sumon_Late_CPLX_L1D         0         0         0         0         0         0         0         0         0         0         0         0
@sumon_overall_L2C    196969        16     17942    215042   2442740   2469081
@Sumon_Early_by_class_L2C      9850        25        25         0
@Sumon_Late_by_class_L2C         0         0         0         0

@Sumon_Early_by_cycle_L2C        14         3         2         3         2         9       241      1266      8810    181766      4670       183
@Sumon_Late_by_cycle_L2C        15         1         0         0         0         0         0         0         0         0         0         0
@Sumon_Early_stream_L2C         0         0         0         0         0         0         0         9       440      9345        55         1
@Sumon_Early_CS_L2C         0         0         0         0         0         0         0         0         0        17         3         5
@Sumon_Early_CPLX_L2C         0         0         0         0         0         0         0         0         1        14         2         8
@Sumon_Late_stream_L2C         0         0         0         0         0         0         0         0         0         0         0         0
@Sumon_Late_CS_L2C         0         0         0         0         0         0         0         0         0         0         0         0
@Sumon_Late_CPLX_L2C         0         0         0         0         0         0         0         0         0         0         0         0
DRAM PAGES: 1048576
Allocated PAGES: 3837
