
*** ChampSim Multicore Out-of-Order Simulator ***

Warmup Instructions: 10000000
Simulation Instructions: 50000000
Number of CPUs: 1
LLC sets: 2048
LLC ways: 16
Off-chip DRAM Size: 4096 MB Channels: 1 Width: 64-bit Data Rate: 6400 MT/s
CPU 0 runs traces/SPEC2017/619.lbm_s-2676B.champsimtrace.xz
.xz
CPU 0 Bimodal branch predictor
BTB has LRU replacement policy
ITLB has LRU replacement policy
DTLB has LRU replacement policy
STLB has LRU replacement policy
L1I has LRU replacement policy
IP Table Entries: 256
Initialize SRRIP state for L1D
IP_Table L2 entries: 256
Initialize SRRIP state for L2C
Initialize SRRIP state
Heartbeat CPU 0 instructions: 10000003 cycles: 2894046 heartbeat IPC: 3.45537 cumulative IPC: 3.45537 (Simulation time: 0 hr 10 min 0 sec) 

Warmup complete CPU 0 instructions: 10000003 cycles: 2894046 (Simulation time: 0 hr 10 min 0 sec) 

Heartbeat CPU 0 instructions: 20000002 cycles: 22229945 heartbeat IPC: 0.517173 cumulative IPC: 0.517173 (Simulation time: 0 hr 34 min 44 sec) 
Heartbeat CPU 0 instructions: 30000002 cycles: 41225017 heartbeat IPC: 0.526452 cumulative IPC: 0.521771 (Simulation time: 0 hr 57 min 6 sec) 
Heartbeat CPU 0 instructions: 40000002 cycles: 59229489 heartbeat IPC: 0.555418 cumulative IPC: 0.532524 (Simulation time: 1 hr 7 min 50 sec) 
Heartbeat CPU 0 instructions: 50000001 cycles: 76423605 heartbeat IPC: 0.581594 cumulative IPC: 0.543999 (Simulation time: 1 hr 12 min 38 sec) 
Heartbeat CPU 0 instructions: 60000001 cycles: 92842946 heartbeat IPC: 0.609038 cumulative IPC: 0.555871 (Simulation time: 1 hr 15 min 26 sec) 
Finished CPU 0 instructions: 50000002 cycles: 89948901 cumulative IPC: 0.555871 (Simulation time: 1 hr 15 min 26 sec) 

ChampSim completed all CPUs

Region of Interest Statistics

CPU 0 cumulative IPC: 0.555871 instructions: 50000002 cycles: 89948901
ITLB TOTAL     ACCESS:    6681354  HIT:    6681354  MISS:          0  HIT %:        100  MISS %:          0   MPKI: 0
ITLB LOAD TRANSLATION ACCESS:    6681354  HIT:    6681354  MISS:          0  HIT %:        100  MISS %:          0   MPKI: 0
ITLB PREFETCH  REQUESTED:          0  ISSUED:          0  USEFUL:          0  USELESS:          0
ITLB USEFUL LOAD PREFETCHES:          0 PREFETCH ISSUED TO LOWER LEVEL:          0  ACCURACY: -nan
ITLB TIMELY PREFETCHES:          0 LATE PREFETCHES: 0 DROPPED PREFETCHES: 0
ITLB PREFETCHES SAME FILL-ORIGIN LEVEL: 0 DIFFERENT FILL-ORIGIN LEVEL: 0
ITLB AVERAGE MISS LATENCY: -nan cycles
ITLB RQ	ACCESS:    8647243	FORWARD:          0	MERGED:    1965888	TO_CACHE:    6681355

DTLB TOTAL     ACCESS:    8588977  HIT:    8530459  MISS:      58518  HIT %:    99.3187  MISS %:   0.681315   MPKI: 1.17036
DTLB LOAD TRANSLATION ACCESS:    8588977  HIT:    8530459  MISS:      58518  HIT %:    99.3187  MISS %:   0.681315   MPKI: 1.17036
DTLB PREFETCH  REQUESTED:          0  ISSUED:          0  USEFUL:          0  USELESS:          0
DTLB USEFUL LOAD PREFETCHES:          0 PREFETCH ISSUED TO LOWER LEVEL:          0  ACCURACY: -nan
DTLB TIMELY PREFETCHES:          0 LATE PREFETCHES: 0 DROPPED PREFETCHES: 0
DTLB PREFETCHES SAME FILL-ORIGIN LEVEL: 0 DIFFERENT FILL-ORIGIN LEVEL: 0
DTLB AVERAGE MISS LATENCY: 119.349 cycles
DTLB RQ	ACCESS:   12011333	FORWARD:          0	MERGED:    3402728	TO_CACHE:    8608605

STLB TOTAL     ACCESS:     376790  HIT:     345037  MISS:      31753  HIT %:    91.5728  MISS %:    8.42724   MPKI: 0.63506
STLB LOAD TRANSLATION ACCESS:      58518  HIT:      26765  MISS:      31753  HIT %:    45.7381  MISS %:    54.2619   MPKI: 0.63506
STLB TRANSLATION FROM L1D PREFETCHER ACCESS:     318272  HIT:     318272  MISS:          0  HIT %:        100  MISS %:          0   MPKI: 0
STLB PREFETCH  REQUESTED:          0  ISSUED:          0  USEFUL:          0  USELESS:          0
STLB USEFUL LOAD PREFETCHES:          0 PREFETCH ISSUED TO LOWER LEVEL:          0  ACCURACY: -nan
STLB TIMELY PREFETCHES:          0 LATE PREFETCHES: 0 DROPPED PREFETCHES: 0
STLB PREFETCHES SAME FILL-ORIGIN LEVEL: 0 DIFFERENT FILL-ORIGIN LEVEL: 0
STLB AVERAGE MISS LATENCY: 200.075 cycles
STLB RQ	ACCESS:     580418	FORWARD:          0	MERGED:     203628	TO_CACHE:     376790

STLB Hit, L1D data hit: 0
STLB Hit, L2C data hit: 0
STLB Hit, LLC data hit: 0
STLB Hit, LLC data miss: 0
STLB STLB hints to L2: 0
L1D TOTAL     ACCESS:   12355052  HIT:    9002840  MISS:    3352212  HIT %:    72.8677  MISS %:    27.1323   MPKI: 67.0442
L1D LOAD      ACCESS:    4298274  HIT:    4142462  MISS:     155812  HIT %:     96.375  MISS %:    3.62499   MPKI: 3.11624
L1D RFO       ACCESS:    7619361  HIT:    4775112  MISS:    2844249  HIT %:    62.6708  MISS %:    37.3292   MPKI: 56.885
L1D PREFETCH  ACCESS:     437417  HIT:      85266  MISS:     352151  HIT %:    19.4931  MISS %:    80.5069   MPKI: 7.04302
L1D PREFETCH  REQUESTED:    1062526  ISSUED:    1043810  USEFUL:     352102  USELESS:         54
L1D USEFUL LOAD PREFETCHES:     352102 PREFETCH ISSUED TO LOWER LEVEL:     380649  ACCURACY: 92.5004
L1D TIMELY PREFETCHES:     352102 LATE PREFETCHES: 28321 DROPPED PREFETCHES: 0
L1D PREFETCHES SAME FILL-ORIGIN LEVEL: 380649 DIFFERENT FILL-ORIGIN LEVEL: 0
L1D AVERAGE MISS LATENCY: 388128 cycles
L1D RQ	ACCESS:   12173406	FORWARD:          0	MERGED:    5543634	TO_CACHE:    4340456
L1D WQ	ACCESS:    8740015	FORWARD:    2289316	MERGED:    1069138	TO_CACHE:    7670877
L1D PQ	ACCESS:     521910	FORWARD:          0	MERGED:         10	TO_CACHE:     521900

L1D UNIQUE REGIONS ACCESSED: 0
L1D REGIONS CONFLICTS: 0
L1D Cross Page Prefetch Requests: 0
L1D Same Page Prefetch Requests: 642485
L1D ROI Sum of L1D PQ occupancy: 461802459
L1D PREFETCHES PUSHED FROM L2C: 0
L1I TOTAL     ACCESS:    8647242  HIT:    8647242  MISS:          0  HIT %:        100  MISS %:          0   MPKI: 0
L1I LOAD      ACCESS:    8647242  HIT:    8647242  MISS:          0  HIT %:        100  MISS %:          0   MPKI: 0
L1I PREFETCH  REQUESTED:          0  ISSUED:          0  USEFUL:          0  USELESS:          0
L1I USEFUL LOAD PREFETCHES:          0 PREFETCH ISSUED TO LOWER LEVEL:          0  ACCURACY: -nan
L1I TIMELY PREFETCHES:          0 LATE PREFETCHES: 0 DROPPED PREFETCHES: 0
L1I PREFETCHES SAME FILL-ORIGIN LEVEL: 0 DIFFERENT FILL-ORIGIN LEVEL: 0
L1I AVERAGE MISS LATENCY: -nan cycles
L1I RQ	ACCESS:   12382387	FORWARD:          0	MERGED:    3735144	TO_CACHE:    8647243

BTB TOTAL     ACCESS:     800654  HIT:     800648  MISS:          6  HIT %:    99.9993  MISS %: 0.000749387   MPKI: 0.00012
BTB BRANCH_DIRECT_JUMP	ACCESS:     107474  HIT:     107473  MISS:          1
BTB BRANCH_INDIRECT	ACCESS:          0  HIT:          0  MISS:          0
BTB BRANCH_CONDITIONAL	ACCESS:     693180  HIT:     693175  MISS:          5
BTB BRANCH_DIRECT_CALL	ACCESS:          0  HIT:          0  MISS:          0
BTB BRANCH_INDIRECT_CALL	ACCESS:          0  HIT:          0  MISS:          0
BTB BRANCH_RETURN	ACCESS:          0  HIT:          0  MISS:          0
BTB BRANCH_OTHER ACCESS:          0  HIT:          0  MISS:          0

L2C TOTAL     ACCESS:    6783776  HIT:    4571961  MISS:    2211815  HIT %:    67.3955  MISS %:    32.6045   MPKI: 44.2363
L2C LOAD      ACCESS:     127491  HIT:      68453  MISS:      59038  HIT %:    53.6924  MISS %:    46.3076   MPKI: 1.18076
L2C DATA LOAD MPKI: 1.18076
L2C INSTRUCTION LOAD MPKI: 0
L2C RFO       ACCESS:    2844249  HIT:    1282481  MISS:    1561768  HIT %:    45.0903  MISS %:    54.9097   MPKI: 31.2354
L2C PREFETCH  ACCESS:     936042  HIT:     486833  MISS:     449209  HIT %:    52.0097  MISS %:    47.9903   MPKI: 8.98418
L2C DATA PREFETCH MPKI: 8.98418
L2C INSTRUCTION PREFETCH MPKI: 0
L2C WRITEBACK ACCESS:    2844239  HIT:    2706608  MISS:     137631  HIT %:    95.1611  MISS %:    4.83894   MPKI: 2.75262
L2C LOAD TRANSLATION ACCESS:      31755  HIT:      27586  MISS:       4169  HIT %:    86.8714  MISS %:    13.1286   MPKI: 0.08338
L2C PREFETCH  REQUESTED:     842042  ISSUED:     842017  USEFUL:      68453  USELESS:     380764
L2C USEFUL LOAD PREFETCHES:      68453 PREFETCH ISSUED TO LOWER LEVEL:     458812  ACCURACY: 14.9196
L2C TIMELY PREFETCHES:      68453 LATE PREFETCHES: 9605 DROPPED PREFETCHES: 0
L2C PREFETCHES SAME FILL-ORIGIN LEVEL: 305858 DIFFERENT FILL-ORIGIN LEVEL: 0
L2C AVERAGE MISS LATENCY: 648.557 cycles
L2C RQ	ACCESS:    3003503	FORWARD:          0	MERGED:          0	TO_CACHE:    3003503
L2C WQ	ACCESS:    2844239	FORWARD:          0	MERGED:          0	TO_CACHE:    2844239
L2C PQ	ACCESS:    1222489	FORWARD:          0	MERGED:     158657	TO_CACHE:    1063832

L2C Instructions Evicting Data 0
L2C Translations Evicting Data 4154
L2C Data Evicting Data 2066101
L2C Instructions Evicting Instructions 0
L2C Translations Evicting Instructions 0
L2C Data Evicting Instructions 0
L2C Instructions Evicting Translations 0
L2C Translations Evicting Translations 15
L2C Data Evicting Translations 3914
L2C Dense regions hint from L2: 0
PSCL5 TOTAL     ACCESS:      31753  HIT:      31753  MISS:          0  HIT %:        100  MISS %:          0   MPKI: 0
PSCL5 LOAD TRANSLATION ACCESS:      31753  HIT:      31753  MISS:          0  HIT %:        100  MISS %:          0   MPKI: 0
PSCL5 PREFETCH  REQUESTED:          0  ISSUED:          0  USEFUL:          0  USELESS:          0
PSCL5 USEFUL LOAD PREFETCHES:          0 PREFETCH ISSUED TO LOWER LEVEL:          0  ACCURACY: -nan
PSCL5 TIMELY PREFETCHES:          0 LATE PREFETCHES: 0 DROPPED PREFETCHES: 0
PSCL5 PREFETCHES SAME FILL-ORIGIN LEVEL: 0 DIFFERENT FILL-ORIGIN LEVEL: 0

PSCL4 TOTAL     ACCESS:      31753  HIT:      31753  MISS:          0  HIT %:        100  MISS %:          0   MPKI: 0
PSCL4 LOAD TRANSLATION ACCESS:      31753  HIT:      31753  MISS:          0  HIT %:        100  MISS %:          0   MPKI: 0
PSCL4 PREFETCH  REQUESTED:          0  ISSUED:          0  USEFUL:          0  USELESS:          0
PSCL4 USEFUL LOAD PREFETCHES:          0 PREFETCH ISSUED TO LOWER LEVEL:          0  ACCURACY: -nan
PSCL4 TIMELY PREFETCHES:          0 LATE PREFETCHES: 0 DROPPED PREFETCHES: 0
PSCL4 PREFETCHES SAME FILL-ORIGIN LEVEL: 0 DIFFERENT FILL-ORIGIN LEVEL: 0

PSCL3 TOTAL     ACCESS:      31753  HIT:      31753  MISS:          0  HIT %:        100  MISS %:          0   MPKI: 0
PSCL3 LOAD TRANSLATION ACCESS:      31753  HIT:      31753  MISS:          0  HIT %:        100  MISS %:          0   MPKI: 0
PSCL3 PREFETCH  REQUESTED:          0  ISSUED:          0  USEFUL:          0  USELESS:          0
PSCL3 USEFUL LOAD PREFETCHES:          0 PREFETCH ISSUED TO LOWER LEVEL:          0  ACCURACY: -nan
PSCL3 TIMELY PREFETCHES:          0 LATE PREFETCHES: 0 DROPPED PREFETCHES: 0
PSCL3 PREFETCHES SAME FILL-ORIGIN LEVEL: 0 DIFFERENT FILL-ORIGIN LEVEL: 0

PSCL2 TOTAL     ACCESS:      31753  HIT:      31719  MISS:         34  HIT %:    99.8929  MISS %:   0.107076   MPKI: 0.00068
PSCL2 LOAD TRANSLATION ACCESS:      31753  HIT:      31719  MISS:         34  HIT %:    99.8929  MISS %:   0.107076   MPKI: 0.00068
PSCL2 PREFETCH  REQUESTED:          0  ISSUED:          0  USEFUL:          0  USELESS:          0
PSCL2 USEFUL LOAD PREFETCHES:          0 PREFETCH ISSUED TO LOWER LEVEL:          0  ACCURACY: -nan
PSCL2 TIMELY PREFETCHES:          0 LATE PREFETCHES: 0 DROPPED PREFETCHES: 0
PSCL2 PREFETCHES SAME FILL-ORIGIN LEVEL: 0 DIFFERENT FILL-ORIGIN LEVEL: 0

LLC TOTAL     ACCESS:    3643804  HIT:    1245549  MISS:    2398255  HIT %:    34.1827  MISS %:    65.8173   MPKI: 47.9651
LLC LOAD      ACCESS:      49433  HIT:         29  MISS:      49404  HIT %:  0.0586653  MISS %:    99.9413   MPKI: 0.98808
LLC RFO       ACCESS:    1561751  HIT:      38060  MISS:    1523691  HIT %:    2.43701  MISS %:     97.563   MPKI: 30.4738
LLC PREFETCH  ACCESS:     458814  HIT:        308  MISS:     458506  HIT %:  0.0671296  MISS %:    99.9329   MPKI: 9.17012
LLC WRITEBACK ACCESS:    1569637  HIT:    1206995  MISS:     362642  HIT %:    76.8964  MISS %:    23.1036   MPKI: 7.25284
LLC LOAD TRANSLATION ACCESS:       4169  HIT:        157  MISS:       4012  HIT %:    3.76589  MISS %:    96.2341   MPKI: 0.08024
LLC PREFETCH  REQUESTED:          0  ISSUED:          0  USEFUL:         29  USELESS:     459485
LLC USEFUL LOAD PREFETCHES:         29 PREFETCH ISSUED TO LOWER LEVEL:     458505  ACCURACY: 0.0063249
LLC TIMELY PREFETCHES:         29 LATE PREFETCHES: 0 DROPPED PREFETCHES: 0
LLC PREFETCHES SAME FILL-ORIGIN LEVEL: 0 DIFFERENT FILL-ORIGIN LEVEL: 0
LLC AVERAGE MISS LATENCY: 573.869 cycles
LLC RQ	ACCESS:    1615378	FORWARD:          0	MERGED:          0	TO_CACHE:    1615361
LLC WQ	ACCESS:    1569638	FORWARD:         17	MERGED:          0	TO_CACHE:    1569638
LLC PQ	ACCESS:     458812	FORWARD:          0	MERGED:          0	TO_CACHE:     458812

LLC Dense regions hint to LLC: 0

RAW hits: 501474
Loads Generated: 12674880
Loads sent to L1D: 12173406
Stores Generated: 8740011
Stores sent to L1D: 8740015
Major fault: 0 Minor fault: 22569
Allocated PAGES: 22569

stream: 
stream:times selected: 2164098
stream:pref_filled: 70329
stream:pref_useful: 70329
stream:pref_late: 10559
stream:misses: 27364
stream:misses_by_poll: 0

CS: 
CS:times selected: 380289
CS:pref_filled: 214138
CS:pref_useful: 214136
CS:pref_late: 7187
CS:misses: 53282
CS:misses_by_poll: 1435

CPLX: 
CPLX:times selected: 1781845
CPLX:pref_filled: 173764
CPLX:pref_useful: 173681
CPLX:pref_late: 11883
CPLX:misses: 116620
CPLX:misses_by_poll: 1105

NL_L1: 
NL:times selected: 892
NL:pref_filled: 35
NL:pref_useful: 35
NL:pref_late: 28
NL:misses: 117
NL:misses_by_poll: 0

total selections: 4327124
total_filled: 352151
total_useful: 352102
total_late: 30576
total_polluted: 2540
total_misses_after_warmup: 197993
conflicts: 104447
Degree Incremented Times: 64826
Degree Decremented Times: 0

L1 IP Table Write Accesses: 3917753
L1 IP Table Read Accesses: 3813306
L1 RST Write Accesses: 1766277
L1 RST Read Accesses: 3532554
L1 CSPT Write Accesses: 1766277
L1 CSPT Read Accesses: 5649590
L1 RR Filter Tag Write Accesses: 540626
L1 RR Filter Tag Read Accesses: 291866316
L1 IP Table Tag Write Accesses: 4340455
L1 IP Table Tag Read Accesses: 4340455
L1 RST Tag Write Accesses: 0
L1 RST Tag Read Accesses: 15975546
L1 RR Filter Write Accesses: 0
L1 RR Filter Read Accesses: 13219845
test: 307673
L2 IP Table Read Accesses: 894011
L2 IP Table Write Accesses: 766650
L2 IP Table Tag Read Accesses: 447192
L2 IP Table Tag Write Accesses: 447192

DRAM Statistics
 CHANNEL 0
 RQ ROW_BUFFER_HIT:     210540  ROW_BUFFER_MISS:    1825072
 DBUS_CONGESTED:          0
 WQ ROW_BUFFER_HIT:     156316  ROW_BUFFER_MISS:    1366398  FULL:       2546

 AVG_CONGESTED_CYCLE: -
 All warmup complete: 2
Channel 0 Bank busy for read cycles: 0
Channel 0 Bank busy for write cycles: 0
Channel 0
Rank 0
0banks busy for read cycles: 6716
0banks busy for write cycles: 0
1banks busy for read cycles: 476625
1banks busy for write cycles: 148459
2banks busy for read cycles: 797824
2banks busy for write cycles: 148459
3banks busy for read cycles: 1383133
3banks busy for write cycles: 148457
4banks busy for read cycles: 2293789
4banks busy for write cycles: 148454
5banks busy for read cycles: 6138827
5banks busy for write cycles: 148518
6banks busy for read cycles: 9398245
6banks busy for write cycles: 167698
7banks busy for read cycles: 13599479
7banks busy for write cycles: 2251088
8banks busy for read cycles: 16718358
8banks busy for write cycles: 35974773

CPU 0 Branch Prediction Accuracy: 95.9387% MPKI: 0.6505 Average ROB Occupancy at Mispredict: 161.818
Branch types
NOT_BRANCH: 49198818 98.3976%
BRANCH_DIRECT_JUMP: 107474 0.214948%
BRANCH_INDIRECT: 0 0%
BRANCH_CONDITIONAL: 693373 1.38675%
BRANCH_DIRECT_CALL: 0 0%
BRANCH_INDIRECT_CALL: 0 0%
BRANCH_RETURN: 0 0%
BRANCH_OTHER: 0 0%

@sumon_overall_L1D    352102     28321        54    352151   1043810   1062526
@Sumon_Early_by_class_L1D     50121    180392    121543        20
@Sumon_Late_by_class_L1D      8740      7112     11660        20

@Sumon_Early_by_cycle_L1D     21001     22097     19365     45506     28113    157236     51904      6840        40         0         0         0
@Sumon_Late_by_cycle_L1D      5643      4122      8996      5875      1526      2141        18         0         0         0         0         0
@Sumon_Early_stream_L1D      5662      7337      4971     12058      6366     13664        63         0         0         0         0         0
@Sumon_Early_CS_L1D      8544      8229      7278     19857     11165     96847     28424        48         0         0         0         0
@Sumon_Early_CPLX_L1D      6791      6528      7111     13585     10576     46707     23414      6791        40         0         0         0
@Sumon_Late_stream_L1D      1436      1363      3028      1754       447       702        10         0         0         0         0         0
@Sumon_Late_CS_L1D      1473      1005      1868      1442       486       831         7         0         0         0         0         0
@Sumon_Late_CPLX_L1D      1946      1747      4093      2678       592       604         0         0         0         0         0         0
@sumon_overall_L2C     68453      9605    380764    449209    842017    842042
@Sumon_Early_by_class_L2C     21561     46864        12         0
@Sumon_Late_by_class_L2C      7198      2360         0         0

@Sumon_Early_by_cycle_L2C      5340      3044      3543      9981      3065     29662     13751        67         0         0         0         0
@Sumon_Late_by_cycle_L2C      1352      2088      2522      2244       471       917        11         0         0         0         0         0
@Sumon_Early_stream_L2C      4288      2350      2515      6464      1499      4405        40         0         0         0         0         0
@Sumon_Early_CS_L2C      1052       692      1026      3517      1566     25250     13708        53         0         0         0         0
@Sumon_Early_CPLX_L2C         0         0         0         0         0         0         0        12         0         0         0         0
@Sumon_Late_stream_L2C       973      1618      2026      1642       311       620         8         0         0         0         0         0
@Sumon_Late_CS_L2C       333       470       496       601       160       297         3         0         0         0         0         0
@Sumon_Late_CPLX_L2C         0         0         0         0         0         0         0         0         0         0         0         0
DRAM PAGES: 1048576
Allocated PAGES: 22569
