
*** ChampSim Multicore Out-of-Order Simulator ***

Warmup Instructions: 10000000
Simulation Instructions: 50000000
Number of CPUs: 1
LLC sets: 2048
LLC ways: 16
Off-chip DRAM Size: 4096 MB Channels: 1 Width: 64-bit Data Rate: 6400 MT/s
CPU 0 runs traces/SPEC2017/623.xalancbmk_s-10B.champsimtrace.xz
.xz
CPU 0 Bimodal branch predictor
BTB has LRU replacement policy
ITLB has LRU replacement policy
DTLB has LRU replacement policy
STLB has LRU replacement policy
L1I has LRU replacement policy
IP Table Entries: 256
Initialize SRRIP state for L1D
IP_Table L2 entries: 256
Initialize SRRIP state for L2C
Initialize SRRIP state
Heartbeat CPU 0 instructions: 10000003 cycles: 3119665 heartbeat IPC: 3.20547 cumulative IPC: 3.20547 (Simulation time: 0 hr 11 min 48 sec) 

Warmup complete CPU 0 instructions: 10000003 cycles: 3119665 (Simulation time: 0 hr 11 min 48 sec) 

Heartbeat CPU 0 instructions: 20000000 cycles: 41228108 heartbeat IPC: 0.262409 cumulative IPC: 0.262409 (Simulation time: 0 hr 23 min 42 sec) 
Heartbeat CPU 0 instructions: 30000001 cycles: 79153542 heartbeat IPC: 0.263675 cumulative IPC: 0.263041 (Simulation time: 0 hr 35 min 16 sec) 
Heartbeat CPU 0 instructions: 40000000 cycles: 114636481 heartbeat IPC: 0.281826 cumulative IPC: 0.269018 (Simulation time: 0 hr 46 min 40 sec) 
Heartbeat CPU 0 instructions: 50000000 cycles: 155536310 heartbeat IPC: 0.2445 cumulative IPC: 0.262439 (Simulation time: 0 hr 57 min 26 sec) 
Heartbeat CPU 0 instructions: 60000001 cycles: 193299202 heartbeat IPC: 0.26481 cumulative IPC: 0.262909 (Simulation time: 1 hr 3 min 58 sec) 
Finished CPU 0 instructions: 50000002 cycles: 190179538 cumulative IPC: 0.262909 (Simulation time: 1 hr 3 min 58 sec) 

ChampSim completed all CPUs

Region of Interest Statistics

CPU 0 cumulative IPC: 0.262909 instructions: 50000002 cycles: 190179538
ITLB TOTAL     ACCESS:    7746553  HIT:    7716645  MISS:      29908  HIT %:    99.6139  MISS %:   0.386081   MPKI: 0.59816
ITLB LOAD TRANSLATION ACCESS:    7746553  HIT:    7716645  MISS:      29908  HIT %:    99.6139  MISS %:   0.386081   MPKI: 0.59816
ITLB PREFETCH  REQUESTED:          0  ISSUED:          0  USEFUL:          0  USELESS:          0
ITLB USEFUL LOAD PREFETCHES:          0 PREFETCH ISSUED TO LOWER LEVEL:          0  ACCURACY: -nan
ITLB TIMELY PREFETCHES:          0 LATE PREFETCHES: 0 DROPPED PREFETCHES: 0
ITLB PREFETCHES SAME FILL-ORIGIN LEVEL: 0 DIFFERENT FILL-ORIGIN LEVEL: 0
ITLB AVERAGE MISS LATENCY: 18.8684 cycles
ITLB RQ	ACCESS:    8912966	FORWARD:          0	MERGED:    1159387	TO_CACHE:    7753579

DTLB TOTAL     ACCESS:   10283283  HIT:    9942200  MISS:     341083  HIT %:    96.6831  MISS %:    3.31687   MPKI: 6.82166
DTLB LOAD TRANSLATION ACCESS:   10283283  HIT:    9942200  MISS:     341083  HIT %:    96.6831  MISS %:    3.31687   MPKI: 6.82166
DTLB PREFETCH  REQUESTED:          0  ISSUED:          0  USEFUL:          0  USELESS:          0
DTLB USEFUL LOAD PREFETCHES:          0 PREFETCH ISSUED TO LOWER LEVEL:          0  ACCURACY: -nan
DTLB TIMELY PREFETCHES:          0 LATE PREFETCHES: 0 DROPPED PREFETCHES: 0
DTLB PREFETCHES SAME FILL-ORIGIN LEVEL: 0 DIFFERENT FILL-ORIGIN LEVEL: 0
DTLB AVERAGE MISS LATENCY: 69.8224 cycles
DTLB RQ	ACCESS:   11368631	FORWARD:          0	MERGED:    1022664	TO_CACHE:   10345967

STLB TOTAL     ACCESS:    1562629  HIT:    1299120  MISS:     263509  HIT %:    83.1368  MISS %:    16.8632   MPKI: 5.27018
STLB LOAD TRANSLATION ACCESS:     370991  HIT:     107578  MISS:     263413  HIT %:    28.9975  MISS %:    71.0025   MPKI: 5.26826
STLB TRANSLATION FROM L1D PREFETCHER ACCESS:    1191638  HIT:    1191542  MISS:         96  HIT %:    99.9919  MISS %: 0.00805614   MPKI: 0.00192
STLB PREFETCH  REQUESTED:          0  ISSUED:          0  USEFUL:         96  USELESS:          0
STLB USEFUL LOAD PREFETCHES:         96 PREFETCH ISSUED TO LOWER LEVEL:          0  ACCURACY: inf
STLB TIMELY PREFETCHES:         96 LATE PREFETCHES: 0 DROPPED PREFETCHES: 0
STLB PREFETCHES SAME FILL-ORIGIN LEVEL: 0 DIFFERENT FILL-ORIGIN LEVEL: 0
STLB AVERAGE MISS LATENCY: 79.8665 cycles
STLB RQ	ACCESS:    2192600	FORWARD:          0	MERGED:     629880	TO_CACHE:    1562720

STLB Hit, L1D data hit: 0
STLB Hit, L2C data hit: 0
STLB Hit, LLC data hit: 0
STLB Hit, LLC data miss: 0
STLB STLB hints to L2: 0
L1D TOTAL     ACCESS:   12792775  HIT:   10501094  MISS:    2291681  HIT %:    82.0861  MISS %:    17.9139   MPKI: 45.8336
L1D LOAD      ACCESS:    9051243  HIT:    7873634  MISS:    1177609  HIT %:    86.9895  MISS %:    13.0105   MPKI: 23.5522
L1D RFO       ACCESS:    2235400  HIT:    2216219  MISS:      19181  HIT %:    99.1419  MISS %:   0.858057   MPKI: 0.38362
L1D PREFETCH  ACCESS:    1506132  HIT:     411241  MISS:    1094891  HIT %:    27.3044  MISS %:    72.6956   MPKI: 21.8978
L1D PREFETCH  REQUESTED:    3643238  ISSUED:    3643223  USEFUL:     204519  USELESS:     890279
L1D USEFUL LOAD PREFETCHES:     204519 PREFETCH ISSUED TO LOWER LEVEL:    1149120  ACCURACY: 17.7979
L1D TIMELY PREFETCHES:     204519 LATE PREFETCHES: 53787 DROPPED PREFETCHES: 0
L1D PREFETCHES SAME FILL-ORIGIN LEVEL: 1149120 DIFFERENT FILL-ORIGIN LEVEL: 0
L1D AVERAGE MISS LATENCY: 2.33361e+06 cycles
L1D RQ	ACCESS:   14737510	FORWARD:          0	MERGED:    5590626	TO_CACHE:    9089869
L1D WQ	ACCESS:    2303184	FORWARD:      57020	MERGED:      24422	TO_CACHE:    2278762
L1D PQ	ACCESS:    1821614	FORWARD:          0	MERGED:          0	TO_CACHE:    1821609

L1D UNIQUE REGIONS ACCESSED: 0
L1D REGIONS CONFLICTS: 0
L1D Cross Page Prefetch Requests: 0
L1D Same Page Prefetch Requests: 2163930
L1D ROI Sum of L1D PQ occupancy: 23623336
L1D PREFETCHES PUSHED FROM L2C: 0
L1I TOTAL     ACCESS:    8865298  HIT:    8693951  MISS:     171347  HIT %:    98.0672  MISS %:    1.93278   MPKI: 3.42694
L1I LOAD      ACCESS:    8865298  HIT:    8693951  MISS:     171347  HIT %:    98.0672  MISS %:    1.93278   MPKI: 3.42694
L1I PREFETCH  REQUESTED:          0  ISSUED:          0  USEFUL:          0  USELESS:          0
L1I USEFUL LOAD PREFETCHES:          0 PREFETCH ISSUED TO LOWER LEVEL:          0  ACCURACY: -nan
L1I TIMELY PREFETCHES:          0 LATE PREFETCHES: 0 DROPPED PREFETCHES: 0
L1I PREFETCHES SAME FILL-ORIGIN LEVEL: 0 DIFFERENT FILL-ORIGIN LEVEL: 0
L1I AVERAGE MISS LATENCY: 31.5575 cycles
L1I RQ	ACCESS:   15117435	FORWARD:          0	MERGED:    6204469	TO_CACHE:    8912966

BTB TOTAL     ACCESS:    8242342  HIT:    8167690  MISS:      74652  HIT %:    99.0943  MISS %:   0.905713   MPKI: 1.49304
BTB BRANCH_DIRECT_JUMP	ACCESS:     118676  HIT:     118023  MISS:        653
BTB BRANCH_INDIRECT	ACCESS:      21952  HIT:       8655  MISS:      13297
BTB BRANCH_CONDITIONAL	ACCESS:    6931278  HIT:    6928566  MISS:       2712
BTB BRANCH_DIRECT_CALL	ACCESS:     319784  HIT:     318786  MISS:        998
BTB BRANCH_INDIRECT_CALL	ACCESS:     265434  HIT:     262598  MISS:       2836
BTB BRANCH_RETURN	ACCESS:     585218  HIT:     531062  MISS:      54156
BTB BRANCH_OTHER ACCESS:          0  HIT:          0  MISS:          0

L2C TOTAL     ACCESS:    2804484  HIT:     601671  MISS:    2202813  HIT %:    21.4539  MISS %:    78.5461   MPKI: 44.0563
L2C LOAD      ACCESS:    1295168  HIT:     243162  MISS:    1052006  HIT %:    18.7746  MISS %:    81.2254   MPKI: 21.0401
L2C DATA LOAD MPKI: 20.3845
L2C INSTRUCTION LOAD MPKI: 0.65562
L2C RFO       ACCESS:      18734  HIT:       8642  MISS:      10092  HIT %:      46.13  MISS %:      53.87   MPKI: 0.20184
L2C PREFETCH  ACCESS:    1186522  HIT:     108455  MISS:    1078067  HIT %:    9.14058  MISS %:    90.8594   MPKI: 21.5613
L2C DATA PREFETCH MPKI: 21.5613
L2C INSTRUCTION PREFETCH MPKI: 0
L2C WRITEBACK ACCESS:      39387  HIT:      39183  MISS:        204  HIT %:    99.4821  MISS %:   0.517937   MPKI: 0.00408
L2C LOAD TRANSLATION ACCESS:     264553  HIT:     202181  MISS:      62372  HIT %:    76.4236  MISS %:    23.5764   MPKI: 1.24744
L2C TRANSLATION FROM L1D PREFETCHER ACCESS:        120  HIT:         48  MISS:         72  HIT %:         40  MISS %:         60   MPKI: 0.00144
L2C PREFETCH  REQUESTED:      39468  ISSUED:      39468  USEFUL:      10814  USELESS:    1066598
L2C USEFUL LOAD PREFETCHES:      10814 PREFETCH ISSUED TO LOWER LEVEL:    1078490  ACCURACY: 1.0027
L2C TIMELY PREFETCHES:      10814 LATE PREFETCHES: 423 DROPPED PREFETCHES: 0
L2C PREFETCHES SAME FILL-ORIGIN LEVEL: 13260 DIFFERENT FILL-ORIGIN LEVEL: 0
L2C AVERAGE MISS LATENCY: 131.476 cycles
L2C RQ	ACCESS:    1578580	FORWARD:          0	MERGED:          0	TO_CACHE:    1578575
L2C WQ	ACCESS:      39387	FORWARD:          5	MERGED:          0	TO_CACHE:      39387
L2C PQ	ACCESS:    1188588	FORWARD:          0	MERGED:        799	TO_CACHE:    1187789

L2C Instructions Evicting Data 31683
L2C Translations Evicting Data 59933
L2C Data Evicting Data 2014753
L2C Instructions Evicting Instructions 509
L2C Translations Evicting Instructions 778
L2C Data Evicting Instructions 32456
L2C Instructions Evicting Translations 589
L2C Translations Evicting Translations 1733
L2C Data Evicting Translations 60175
L2C Dense regions hint from L2: 0
PSCL5 TOTAL     ACCESS:     263509  HIT:     263509  MISS:          0  HIT %:        100  MISS %:          0   MPKI: 0
PSCL5 LOAD TRANSLATION ACCESS:     263413  HIT:     263413  MISS:          0  HIT %:        100  MISS %:          0   MPKI: 0
PSCL5 TRANSLATION FROM L1D PREFETCHER ACCESS:         96  HIT:         96  MISS:          0  HIT %:        100  MISS %:          0   MPKI: 0
PSCL5 PREFETCH  REQUESTED:          0  ISSUED:          0  USEFUL:          0  USELESS:          0
PSCL5 USEFUL LOAD PREFETCHES:          0 PREFETCH ISSUED TO LOWER LEVEL:          0  ACCURACY: -nan
PSCL5 TIMELY PREFETCHES:          0 LATE PREFETCHES: 0 DROPPED PREFETCHES: 0
PSCL5 PREFETCHES SAME FILL-ORIGIN LEVEL: 0 DIFFERENT FILL-ORIGIN LEVEL: 0

PSCL4 TOTAL     ACCESS:     263509  HIT:     263509  MISS:          0  HIT %:        100  MISS %:          0   MPKI: 0
PSCL4 LOAD TRANSLATION ACCESS:     263413  HIT:     263413  MISS:          0  HIT %:        100  MISS %:          0   MPKI: 0
PSCL4 TRANSLATION FROM L1D PREFETCHER ACCESS:         96  HIT:         96  MISS:          0  HIT %:        100  MISS %:          0   MPKI: 0
PSCL4 PREFETCH  REQUESTED:          0  ISSUED:          0  USEFUL:          0  USELESS:          0
PSCL4 USEFUL LOAD PREFETCHES:          0 PREFETCH ISSUED TO LOWER LEVEL:          0  ACCURACY: -nan
PSCL4 TIMELY PREFETCHES:          0 LATE PREFETCHES: 0 DROPPED PREFETCHES: 0
PSCL4 PREFETCHES SAME FILL-ORIGIN LEVEL: 0 DIFFERENT FILL-ORIGIN LEVEL: 0

PSCL3 TOTAL     ACCESS:     263509  HIT:     263509  MISS:          0  HIT %:        100  MISS %:          0   MPKI: 0
PSCL3 LOAD TRANSLATION ACCESS:     263413  HIT:     263413  MISS:          0  HIT %:        100  MISS %:          0   MPKI: 0
PSCL3 TRANSLATION FROM L1D PREFETCHER ACCESS:         96  HIT:         96  MISS:          0  HIT %:        100  MISS %:          0   MPKI: 0
PSCL3 PREFETCH  REQUESTED:          0  ISSUED:          0  USEFUL:          0  USELESS:          0
PSCL3 USEFUL LOAD PREFETCHES:          0 PREFETCH ISSUED TO LOWER LEVEL:          0  ACCURACY: -nan
PSCL3 TIMELY PREFETCHES:          0 LATE PREFETCHES: 0 DROPPED PREFETCHES: 0
PSCL3 PREFETCHES SAME FILL-ORIGIN LEVEL: 0 DIFFERENT FILL-ORIGIN LEVEL: 0

PSCL2 TOTAL     ACCESS:     263509  HIT:     262345  MISS:       1164  HIT %:    99.5583  MISS %:   0.441731   MPKI: 0.02328
PSCL2 LOAD TRANSLATION ACCESS:     263437  HIT:     262273  MISS:       1164  HIT %:    99.5581  MISS %:   0.441851   MPKI: 0.02328
PSCL2 TRANSLATION FROM L1D PREFETCHER ACCESS:         72  HIT:         72  MISS:          0  HIT %:        100  MISS %:          0   MPKI: 0
PSCL2 PREFETCH  REQUESTED:          0  ISSUED:          0  USEFUL:          0  USELESS:          0
PSCL2 USEFUL LOAD PREFETCHES:          0 PREFETCH ISSUED TO LOWER LEVEL:          0  ACCURACY: -nan
PSCL2 TIMELY PREFETCHES:          0 LATE PREFETCHES: 0 DROPPED PREFETCHES: 0
PSCL2 PREFETCHES SAME FILL-ORIGIN LEVEL: 0 DIFFERENT FILL-ORIGIN LEVEL: 0

LLC TOTAL     ACCESS:    2220887  HIT:     185316  MISS:    2035571  HIT %:    8.34423  MISS %:    91.6558   MPKI: 40.7114
LLC LOAD      ACCESS:    1051583  HIT:      84980  MISS:     966603  HIT %:    8.08115  MISS %:    91.9188   MPKI: 19.3321
LLC RFO       ACCESS:      10092  HIT:       3428  MISS:       6664  HIT %:    33.9675  MISS %:    66.0325   MPKI: 0.13328
LLC PREFETCH  ACCESS:    1078490  HIT:      76423  MISS:    1002067  HIT %:    7.08611  MISS %:    92.9139   MPKI: 20.0413
LLC WRITEBACK ACCESS:      18278  HIT:      17903  MISS:        375  HIT %:    97.9484  MISS %:    2.05165   MPKI: 0.0075
LLC LOAD TRANSLATION ACCESS:      62372  HIT:       2566  MISS:      59806  HIT %:    4.11403  MISS %:     95.886   MPKI: 1.19612
LLC TRANSLATION FROM L1D PREFETCHER ACCESS:         72  HIT:         16  MISS:         56  HIT %:    22.2222  MISS %:    77.7778   MPKI: 0.00112
LLC PREFETCH  REQUESTED:          0  ISSUED:          0  USEFUL:       5589  USELESS:     995431
LLC USEFUL LOAD PREFETCHES:       5589 PREFETCH ISSUED TO LOWER LEVEL:    1002067  ACCURACY: 0.557747
LLC TIMELY PREFETCHES:       5589 LATE PREFETCHES: 0 DROPPED PREFETCHES: 0
LLC PREFETCHES SAME FILL-ORIGIN LEVEL: 0 DIFFERENT FILL-ORIGIN LEVEL: 0
LLC AVERAGE MISS LATENCY: 109.826 cycles
LLC RQ	ACCESS:    1124119	FORWARD:          0	MERGED:          0	TO_CACHE:    1124119
LLC WQ	ACCESS:      18278	FORWARD:          0	MERGED:          0	TO_CACHE:      18278
LLC PQ	ACCESS:    1078490	FORWARD:          0	MERGED:          0	TO_CACHE:    1078490

LLC Dense regions hint to LLC: 0

RAW hits: 58781
Loads Generated: 14796291
Loads sent to L1D: 14737510
Stores Generated: 2303186
Stores sent to L1D: 2303184
Major fault: 0 Minor fault: 10925
Allocated PAGES: 10925

stream: 
stream:times selected: 2822561
stream:pref_filled: 916496
stream:pref_useful: 177823
stream:pref_late: 60030
stream:misses: 368370
stream:misses_by_poll: 0

CS: 
CS:times selected: 77156
CS:pref_filled: 68978
CS:pref_useful: 46561
CS:pref_late: 679
CS:misses: 9980
CS:misses_by_poll: 92

CPLX: 
CPLX:times selected: 2719320
CPLX:pref_filled: 301479
CPLX:pref_useful: 24154
CPLX:pref_late: 1470
CPLX:misses: 1021378
CPLX:misses_by_poll: 740

NL_L1: 
NL:times selected: 24063
NL:pref_filled: 9151
NL:pref_useful: 1950
NL:pref_late: 893
NL:misses: 12221
NL:misses_by_poll: 0

total selections: 5643100
total_filled: 1094891
total_useful: 204519
total_late: 64478
total_polluted: 832
total_misses_after_warmup: 1216236
conflicts: 483218
Degree Incremented Times: 1292
Degree Decremented Times: 356001

L1 IP Table Write Accesses: 8307375
L1 IP Table Read Accesses: 7824157
L1 RST Write Accesses: 2333044
L1 RST Read Accesses: 4666088
L1 CSPT Write Accesses: 2333044
L1 CSPT Read Accesses: 4582801
L1 RR Filter Tag Write Accesses: 1821629
L1 RR Filter Tag Read Accesses: 88794135
L1 IP Table Tag Write Accesses: 9089870
L1 IP Table Tag Read Accesses: 9089870
L1 RST Tag Write Accesses: 0
L1 RST Tag Read Accesses: 21337821
L1 RR Filter Write Accesses: 0
L1 RR Filter Read Accesses: 2956031
test: 1767451
L2 IP Table Read Accesses: 4501180
L2 IP Table Write Accesses: 3435264
L2 IP Table Tag Read Accesses: 2270763
L2 IP Table Tag Write Accesses: 2270763

DRAM Statistics
 CHANNEL 0
 RQ ROW_BUFFER_HIT:    1419080  ROW_BUFFER_MISS:     616116
 DBUS_CONGESTED:        234
 WQ ROW_BUFFER_HIT:        588  ROW_BUFFER_MISS:       8440  FULL:          0

 AVG_CONGESTED_CYCLE: 4
 All warmup complete: 2
Channel 0 Bank busy for read cycles: 0
Channel 0 Bank busy for write cycles: 0
Channel 0
Rank 0
0banks busy for read cycles: 111147416
0banks busy for write cycles: 8195
1banks busy for read cycles: 33690435
1banks busy for write cycles: 1581454
2banks busy for read cycles: 21067225
2banks busy for write cycles: 125377
3banks busy for read cycles: 10792055
3banks busy for write cycles: 11636
4banks busy for read cycles: 5961228
4banks busy for write cycles: 979
5banks busy for read cycles: 3875544
5banks busy for write cycles: 131
6banks busy for read cycles: 1534525
6banks busy for write cycles: 0
7banks busy for read cycles: 324471
7banks busy for write cycles: 0
8banks busy for read cycles: 58868
8banks busy for write cycles: 0

CPU 0 Branch Prediction Accuracy: 94.93% MPKI: 13.2206 Average ROB Occupancy at Mispredict: 36.8607
Branch types
NOT_BRANCH: 36961557 73.9231%
BRANCH_DIRECT_JUMP: 118676 0.237352%
BRANCH_INDIRECT: 21952 0.043904%
BRANCH_CONDITIONAL: 11727062 23.4541%
BRANCH_DIRECT_CALL: 319784 0.639568%
BRANCH_INDIRECT_CALL: 265434 0.530868%
BRANCH_RETURN: 585218 1.17044%
BRANCH_OTHER: 0 0%

@sumon_overall_L1D    204519     53787    890279   1094891   3643223   3643238
@Sumon_Early_by_class_L1D    146181     36705     19949       770
@Sumon_Late_by_class_L1D     49837       663      1256       770

@Sumon_Early_by_cycle_L1D     48334     14616     28148     23637     16741     34785      9172      3208     10912     13815       605       546
@Sumon_Late_by_cycle_L1D     36529     17061       197         0         0         0         0         0         0         0         0         0
@Sumon_Early_stream_L1D     46068     13132     19865     19382     13255     24846      5665      2059       791       537       296       285
@Sumon_Early_CS_L1D       481       326      2919      1686      1826      4367      1449       554      9795     13026       168       108
@Sumon_Early_CPLX_L1D       785       940      5327      2524      1547      5384      2028       571       324       239       127       153
@Sumon_Late_stream_L1D     33712     15974       151         0         0         0         0         0         0         0         0         0
@Sumon_Late_CS_L1D       248       370        45         0         0         0         0         0         0         0         0         0
@Sumon_Late_CPLX_L1D       860       395         1         0         0         0         0         0         0         0         0         0
@sumon_overall_L2C     10814       423   1066598   1078139     39468     39468
@Sumon_Early_by_class_L2C      4090       605      2266         0
@Sumon_Late_by_class_L2C         0         0         0         0

@Sumon_Early_by_cycle_L2C       579       309       274       197        71       232       109       274       427       503       577      7262
@Sumon_Late_by_cycle_L2C       206       214         3         0         0         0         0         0         0         0         0         0
@Sumon_Early_stream_L2C         0         2        15         7         0         7         8         9        58        69       151      3764
@Sumon_Early_CS_L2C         0         0         0         1         2         2         2         1         4        44        26       523
@Sumon_Early_CPLX_L2C         0         0         0         0         0         0         1         9        10        81       121      2044
@Sumon_Late_stream_L2C         0         0         0         0         0         0         0         0         0         0         0         0
@Sumon_Late_CS_L2C         0         0         0         0         0         0         0         0         0         0         0         0
@Sumon_Late_CPLX_L2C         0         0         0         0         0         0         0         0         0         0         0         0
DRAM PAGES: 1048576
Allocated PAGES: 10925
