
*** ChampSim Multicore Out-of-Order Simulator ***

Warmup Instructions: 10000000
Simulation Instructions: 50000000
Number of CPUs: 1
LLC sets: 2048
LLC ways: 16
Off-chip DRAM Size: 4096 MB Channels: 1 Width: 64-bit Data Rate: 6400 MT/s
CPU 0 runs traces/SPEC2017/654.roms_s-294B.champsimtrace.xz
.xz
CPU 0 Bimodal branch predictor
BTB has LRU replacement policy
ITLB has LRU replacement policy
DTLB has LRU replacement policy
STLB has LRU replacement policy
L1I has LRU replacement policy
IP Table Entries: 256
Initialize SRRIP state for L1D
IP_Table L2 entries: 256
Initialize SRRIP state for L2C
Initialize SRRIP state
Heartbeat CPU 0 instructions: 10000001 cycles: 3208803 heartbeat IPC: 3.11643 cumulative IPC: 3.11643 (Simulation time: 0 hr 13 min 30 sec) 

Warmup complete CPU 0 instructions: 10000001 cycles: 3208803 (Simulation time: 0 hr 13 min 30 sec) 

Heartbeat CPU 0 instructions: 20000000 cycles: 12807599 heartbeat IPC: 1.0418 cumulative IPC: 1.0418 (Simulation time: 0 hr 23 min 25 sec) 
Heartbeat CPU 0 instructions: 30000003 cycles: 22392255 heartbeat IPC: 1.04333 cumulative IPC: 1.04257 (Simulation time: 0 hr 33 min 11 sec) 
Heartbeat CPU 0 instructions: 40000001 cycles: 31980946 heartbeat IPC: 1.04289 cumulative IPC: 1.04268 (Simulation time: 0 hr 42 min 54 sec) 
Heartbeat CPU 0 instructions: 50000002 cycles: 41572587 heartbeat IPC: 1.04257 cumulative IPC: 1.04265 (Simulation time: 0 hr 52 min 28 sec) 
Heartbeat CPU 0 instructions: 60000002 cycles: 51178045 heartbeat IPC: 1.04107 cumulative IPC: 1.04233 (Simulation time: 0 hr 59 min 44 sec) 
Finished CPU 0 instructions: 50000001 cycles: 47969242 cumulative IPC: 1.04233 (Simulation time: 0 hr 59 min 44 sec) 

ChampSim completed all CPUs

Region of Interest Statistics

CPU 0 cumulative IPC: 1.04233 instructions: 50000001 cycles: 47969242
ITLB TOTAL     ACCESS:    6687940  HIT:    6687940  MISS:          0  HIT %:        100  MISS %:          0   MPKI: 0
ITLB LOAD TRANSLATION ACCESS:    6687940  HIT:    6687940  MISS:          0  HIT %:        100  MISS %:          0   MPKI: 0
ITLB PREFETCH  REQUESTED:          0  ISSUED:          0  USEFUL:          0  USELESS:          0
ITLB USEFUL LOAD PREFETCHES:          0 PREFETCH ISSUED TO LOWER LEVEL:          0  ACCURACY: -nan
ITLB TIMELY PREFETCHES:          0 LATE PREFETCHES: 0 DROPPED PREFETCHES: 0
ITLB PREFETCHES SAME FILL-ORIGIN LEVEL: 0 DIFFERENT FILL-ORIGIN LEVEL: 0
ITLB AVERAGE MISS LATENCY: -nan cycles
ITLB RQ	ACCESS:    8355140	FORWARD:          0	MERGED:    1667201	TO_CACHE:    6687939

DTLB TOTAL     ACCESS:   13488610  HIT:   13468860  MISS:      19750  HIT %:    99.8536  MISS %:    0.14642   MPKI: 0.395
DTLB LOAD TRANSLATION ACCESS:   13488610  HIT:   13468860  MISS:      19750  HIT %:    99.8536  MISS %:    0.14642   MPKI: 0.395
DTLB PREFETCH  REQUESTED:          0  ISSUED:          0  USEFUL:          0  USELESS:          0
DTLB USEFUL LOAD PREFETCHES:          0 PREFETCH ISSUED TO LOWER LEVEL:          0  ACCURACY: -nan
DTLB TIMELY PREFETCHES:          0 LATE PREFETCHES: 0 DROPPED PREFETCHES: 0
DTLB PREFETCHES SAME FILL-ORIGIN LEVEL: 0 DIFFERENT FILL-ORIGIN LEVEL: 0
DTLB AVERAGE MISS LATENCY: 393.2 cycles
DTLB RQ	ACCESS:   14550533	FORWARD:          0	MERGED:    1060003	TO_CACHE:   13490530

STLB TOTAL     ACCESS:     864157  HIT:     847726  MISS:      16431  HIT %:    98.0986  MISS %:    1.90139   MPKI: 0.32862
STLB LOAD TRANSLATION ACCESS:      19750  HIT:       3319  MISS:      16431  HIT %:    16.8051  MISS %:    83.1949   MPKI: 0.32862
STLB TRANSLATION FROM L1D PREFETCHER ACCESS:     844407  HIT:     844407  MISS:          0  HIT %:        100  MISS %:          0   MPKI: 0
STLB PREFETCH  REQUESTED:          0  ISSUED:          0  USEFUL:          0  USELESS:          0
STLB USEFUL LOAD PREFETCHES:          0 PREFETCH ISSUED TO LOWER LEVEL:          0  ACCURACY: -nan
STLB TIMELY PREFETCHES:          0 LATE PREFETCHES: 0 DROPPED PREFETCHES: 0
STLB PREFETCHES SAME FILL-ORIGIN LEVEL: 0 DIFFERENT FILL-ORIGIN LEVEL: 0
STLB AVERAGE MISS LATENCY: 460.282 cycles
STLB RQ	ACCESS:    4568301	FORWARD:          0	MERGED:    3704144	TO_CACHE:     864157

STLB Hit, L1D data hit: 0
STLB Hit, L2C data hit: 0
STLB Hit, LLC data hit: 0
STLB Hit, LLC data miss: 0
STLB STLB hints to L2: 0
L1D TOTAL     ACCESS:   19058936  HIT:   18277683  MISS:     781253  HIT %:    95.9009  MISS %:    4.09914   MPKI: 15.6251
L1D LOAD      ACCESS:   12835636  HIT:   12767368  MISS:      68268  HIT %:    99.4681  MISS %:   0.531863   MPKI: 1.36536
L1D RFO       ACCESS:    1677889  HIT:    1673151  MISS:       4738  HIT %:    99.7176  MISS %:   0.282379   MPKI: 0.09476
L1D PREFETCH  ACCESS:    4545411  HIT:    3837164  MISS:     708247  HIT %:    84.4184  MISS %:    15.5816   MPKI: 14.1649
L1D PREFETCH  REQUESTED:    9846194  ISSUED:    9097102  USEFUL:     602785  USELESS:     105448
L1D USEFUL LOAD PREFETCHES:     602785 PREFETCH ISSUED TO LOWER LEVEL:     719076  ACCURACY: 83.8277
L1D TIMELY PREFETCHES:     602785 LATE PREFETCHES: 81 DROPPED PREFETCHES: 0
L1D PREFETCHES SAME FILL-ORIGIN LEVEL: 719076 DIFFERENT FILL-ORIGIN LEVEL: 0
L1D AVERAGE MISS LATENCY: 2759.29 cycles
L1D RQ	ACCESS:   19112601	FORWARD:          0	MERGED:    6261939	TO_CACHE:   12850658
L1D WQ	ACCESS:    1699875	FORWARD:          4	MERGED:          0	TO_CACHE:    1699875
L1D PQ	ACCESS:    4548551	FORWARD:          0	MERGED:          0	TO_CACHE:    4548551

L1D UNIQUE REGIONS ACCESSED: 0
L1D REGIONS CONFLICTS: 0
L1D Cross Page Prefetch Requests: 0
L1D Same Page Prefetch Requests: 5518528
L1D ROI Sum of L1D PQ occupancy: 66699845
L1D PREFETCHES PUSHED FROM L2C: 0
L1I TOTAL     ACCESS:    8355140  HIT:    8355140  MISS:          0  HIT %:        100  MISS %:          0   MPKI: 0
L1I LOAD      ACCESS:    8355140  HIT:    8355140  MISS:          0  HIT %:        100  MISS %:          0   MPKI: 0
L1I PREFETCH  REQUESTED:          0  ISSUED:          0  USEFUL:          0  USELESS:          0
L1I USEFUL LOAD PREFETCHES:          0 PREFETCH ISSUED TO LOWER LEVEL:          0  ACCURACY: -nan
L1I TIMELY PREFETCHES:          0 LATE PREFETCHES: 0 DROPPED PREFETCHES: 0
L1I PREFETCHES SAME FILL-ORIGIN LEVEL: 0 DIFFERENT FILL-ORIGIN LEVEL: 0
L1I AVERAGE MISS LATENCY: -nan cycles
L1I RQ	ACCESS:   13369093	FORWARD:          0	MERGED:    5013953	TO_CACHE:    8355140

BTB TOTAL     ACCESS:    2106371  HIT:    2106360  MISS:         11  HIT %:    99.9995  MISS %: 0.000522225   MPKI: 0.00022
BTB BRANCH_DIRECT_JUMP	ACCESS:         40  HIT:         39  MISS:          1
BTB BRANCH_INDIRECT	ACCESS:          0  HIT:          0  MISS:          0
BTB BRANCH_CONDITIONAL	ACCESS:    2106251  HIT:    2106243  MISS:          8
BTB BRANCH_DIRECT_CALL	ACCESS:         40  HIT:         39  MISS:          1
BTB BRANCH_INDIRECT_CALL	ACCESS:          0  HIT:          0  MISS:          0
BTB BRANCH_RETURN	ACCESS:         40  HIT:         39  MISS:          1
BTB BRANCH_OTHER ACCESS:          0  HIT:          0  MISS:          0

L2C TOTAL     ACCESS:    3501611  HIT:    2743510  MISS:     758101  HIT %:    78.3499  MISS %:    21.6501   MPKI: 15.162
L2C LOAD      ACCESS:      68168  HIT:      43434  MISS:      24734  HIT %:    63.7161  MISS %:    36.2839   MPKI: 0.49468
L2C DATA LOAD MPKI: 0.49468
L2C INSTRUCTION LOAD MPKI: 0
L2C RFO       ACCESS:       4738  HIT:        485  MISS:       4253  HIT %:    10.2364  MISS %:    89.7636   MPKI: 0.08506
L2C PREFETCH  ACCESS:    3380274  HIT:    2665127  MISS:     715147  HIT %:    78.8435  MISS %:    21.1565   MPKI: 14.3029
L2C DATA PREFETCH MPKI: 14.3029
L2C INSTRUCTION PREFETCH MPKI: 0
L2C WRITEBACK ACCESS:      23786  HIT:      22974  MISS:        812  HIT %:    96.5862  MISS %:    3.41377   MPKI: 0.01624
L2C LOAD TRANSLATION ACCESS:      24645  HIT:      11490  MISS:      13155  HIT %:     46.622  MISS %:     53.378   MPKI: 0.2631
L2C PREFETCH  REQUESTED:    3578201  ISSUED:    3380549  USEFUL:      36068  USELESS:     679464
L2C USEFUL LOAD PREFETCHES:      36068 PREFETCH ISSUED TO LOWER LEVEL:     715178  ACCURACY: 5.04322
L2C TIMELY PREFETCHES:      36068 LATE PREFETCHES: 24 DROPPED PREFETCHES: 0
L2C PREFETCHES SAME FILL-ORIGIN LEVEL: 583377 DIFFERENT FILL-ORIGIN LEVEL: 0
L2C AVERAGE MISS LATENCY: 116.304 cycles
L2C RQ	ACCESS:      97570	FORWARD:          0	MERGED:          0	TO_CACHE:      97551
L2C WQ	ACCESS:      23786	FORWARD:         62	MERGED:          0	TO_CACHE:      23786
L2C PQ	ACCESS:    4088878	FORWARD:          0	MERGED:     697262	TO_CACHE:    3391573

L2C Instructions Evicting Data 0
L2C Translations Evicting Data 12904
L2C Data Evicting Data 731241
L2C Instructions Evicting Instructions 0
L2C Translations Evicting Instructions 0
L2C Data Evicting Instructions 0
L2C Instructions Evicting Translations 0
L2C Translations Evicting Translations 251
L2C Data Evicting Translations 12893
L2C Dense regions hint from L2: 0
PSCL5 TOTAL     ACCESS:      16431  HIT:      16431  MISS:          0  HIT %:        100  MISS %:          0   MPKI: 0
PSCL5 LOAD TRANSLATION ACCESS:      16431  HIT:      16431  MISS:          0  HIT %:        100  MISS %:          0   MPKI: 0
PSCL5 PREFETCH  REQUESTED:          0  ISSUED:          0  USEFUL:          0  USELESS:          0
PSCL5 USEFUL LOAD PREFETCHES:          0 PREFETCH ISSUED TO LOWER LEVEL:          0  ACCURACY: -nan
PSCL5 TIMELY PREFETCHES:          0 LATE PREFETCHES: 0 DROPPED PREFETCHES: 0
PSCL5 PREFETCHES SAME FILL-ORIGIN LEVEL: 0 DIFFERENT FILL-ORIGIN LEVEL: 0

PSCL4 TOTAL     ACCESS:      16431  HIT:      16431  MISS:          0  HIT %:        100  MISS %:          0   MPKI: 0
PSCL4 LOAD TRANSLATION ACCESS:      16431  HIT:      16431  MISS:          0  HIT %:        100  MISS %:          0   MPKI: 0
PSCL4 PREFETCH  REQUESTED:          0  ISSUED:          0  USEFUL:          0  USELESS:          0
PSCL4 USEFUL LOAD PREFETCHES:          0 PREFETCH ISSUED TO LOWER LEVEL:          0  ACCURACY: -nan
PSCL4 TIMELY PREFETCHES:          0 LATE PREFETCHES: 0 DROPPED PREFETCHES: 0
PSCL4 PREFETCHES SAME FILL-ORIGIN LEVEL: 0 DIFFERENT FILL-ORIGIN LEVEL: 0

PSCL3 TOTAL     ACCESS:      16430  HIT:      16425  MISS:          5  HIT %:    99.9696  MISS %:  0.0304321   MPKI: 0.0001
PSCL3 LOAD TRANSLATION ACCESS:      16430  HIT:      16425  MISS:          5  HIT %:    99.9696  MISS %:  0.0304321   MPKI: 0.0001
PSCL3 PREFETCH  REQUESTED:          0  ISSUED:          0  USEFUL:          0  USELESS:          0
PSCL3 USEFUL LOAD PREFETCHES:          0 PREFETCH ISSUED TO LOWER LEVEL:          0  ACCURACY: -nan
PSCL3 TIMELY PREFETCHES:          0 LATE PREFETCHES: 0 DROPPED PREFETCHES: 0
PSCL3 PREFETCHES SAME FILL-ORIGIN LEVEL: 0 DIFFERENT FILL-ORIGIN LEVEL: 0

PSCL2 TOTAL     ACCESS:      16431  HIT:       8154  MISS:       8277  HIT %:    49.6257  MISS %:    50.3743   MPKI: 0.16554
PSCL2 LOAD TRANSLATION ACCESS:      16431  HIT:       8154  MISS:       8277  HIT %:    49.6257  MISS %:    50.3743   MPKI: 0.16554
PSCL2 PREFETCH  REQUESTED:          0  ISSUED:          0  USEFUL:          0  USELESS:          0
PSCL2 USEFUL LOAD PREFETCHES:          0 PREFETCH ISSUED TO LOWER LEVEL:          0  ACCURACY: -nan
PSCL2 TIMELY PREFETCHES:          0 LATE PREFETCHES: 0 DROPPED PREFETCHES: 0
PSCL2 PREFETCHES SAME FILL-ORIGIN LEVEL: 0 DIFFERENT FILL-ORIGIN LEVEL: 0

LLC TOTAL     ACCESS:     763705  HIT:     124405  MISS:     639300  HIT %:    16.2897  MISS %:    83.7103   MPKI: 12.786
LLC LOAD      ACCESS:      24710  HIT:       3564  MISS:      21146  HIT %:    14.4233  MISS %:    85.5767   MPKI: 0.42292
LLC RFO       ACCESS:       4253  HIT:         40  MISS:       4213  HIT %:   0.940513  MISS %:    99.0595   MPKI: 0.08426
LLC PREFETCH  ACCESS:     715176  HIT:     108869  MISS:     606307  HIT %:    15.2227  MISS %:    84.7773   MPKI: 12.1261
LLC WRITEBACK ACCESS:       6411  HIT:       3455  MISS:       2956  HIT %:    53.8917  MISS %:    46.1083   MPKI: 0.05912
LLC LOAD TRANSLATION ACCESS:      13155  HIT:       8477  MISS:       4678  HIT %:    64.4394  MISS %:    35.5606   MPKI: 0.09356
LLC PREFETCH  REQUESTED:          0  ISSUED:          0  USEFUL:         70  USELESS:     606259
LLC USEFUL LOAD PREFETCHES:         70 PREFETCH ISSUED TO LOWER LEVEL:     606309  ACCURACY: 0.0115453
LLC TIMELY PREFETCHES:         70 LATE PREFETCHES: 0 DROPPED PREFETCHES: 0
LLC PREFETCHES SAME FILL-ORIGIN LEVEL: 0 DIFFERENT FILL-ORIGIN LEVEL: 0
LLC AVERAGE MISS LATENCY: 99.4677 cycles
LLC RQ	ACCESS:      42118	FORWARD:          0	MERGED:          0	TO_CACHE:      42118
LLC WQ	ACCESS:       6411	FORWARD:          0	MERGED:          0	TO_CACHE:       6411
LLC PQ	ACCESS:     715178	FORWARD:          0	MERGED:          0	TO_CACHE:     715178

LLC Dense regions hint to LLC: 0

RAW hits: 75
Loads Generated: 19112677
Loads sent to L1D: 19112601
Stores Generated: 1699875
Stores sent to L1D: 1699875
Major fault: 0 Minor fault: 20110
Allocated PAGES: 20110

stream: 
stream:times selected: 1263723
stream:pref_filled: 858310
stream:pref_useful: 729350
stream:pref_late: 181
stream:misses: 16
stream:misses_by_poll: 0

CS: 
CS:times selected: 1262235
CS:pref_filled: 1243
CS:pref_useful: 1199
CS:pref_late: 4
CS:misses: 83006
CS:misses_by_poll: 2

CPLX: 
CPLX:times selected: 1450
CPLX:pref_filled: 43
CPLX:pref_useful: 1
CPLX:pref_late: 0
CPLX:misses: 585
CPLX:misses_by_poll: 0

NL_L1: 
NL:times selected: 2
NL:pref_filled: 2
NL:pref_useful: 2
NL:pref_late: 0
NL:misses: 0
NL:misses_by_poll: 0

total selections: 2527410
total_filled: 708247
total_useful: 602785
total_late: 188
total_polluted: 2
total_misses_after_warmup: 83287
conflicts: 17
Degree Incremented Times: 69092
Degree Decremented Times: 0

L1 IP Table Write Accesses: 12850437
L1 IP Table Read Accesses: 12850420
L1 RST Write Accesses: 1053979
L1 RST Read Accesses: 2107958
L1 CSPT Write Accesses: 1053979
L1 CSPT Read Accesses: 1057680
L1 RR Filter Tag Write Accesses: 5297643
L1 RR Filter Tag Read Accesses: 261824422
L1 IP Table Tag Write Accesses: 12850655
L1 IP Table Tag Read Accesses: 12850655
L1 RST Tag Write Accesses: 0
L1 RST Tag Read Accesses: 9494999
L1 RR Filter Write Accesses: 0
L1 RR Filter Read Accesses: 9031049
test: 35076
L2 IP Table Read Accesses: 1270735
L2 IP Table Write Accesses: 1202569
L2 IP Table Tag Read Accesses: 635368
L2 IP Table Tag Write Accesses: 635368

DRAM Statistics
 CHANNEL 0
 RQ ROW_BUFFER_HIT:     519421  ROW_BUFFER_MISS:     116924
 DBUS_CONGESTED:         94
 WQ ROW_BUFFER_HIT:        908  ROW_BUFFER_MISS:       4374  FULL:          0

 AVG_CONGESTED_CYCLE: 5
 All warmup complete: 2
Channel 0 Bank busy for read cycles: 0
Channel 0 Bank busy for write cycles: 0
Channel 0
Rank 0
0banks busy for read cycles: 26872069
0banks busy for write cycles: 4159
1banks busy for read cycles: 11981885
1banks busy for write cycles: 719832
2banks busy for read cycles: 3432458
2banks busy for write cycles: 121374
3banks busy for read cycles: 1373191
3banks busy for write cycles: 29209
4banks busy for read cycles: 775524
4banks busy for write cycles: 6365
5banks busy for read cycles: 519921
5banks busy for write cycles: 3508
6banks busy for read cycles: 524166
6banks busy for write cycles: 730
7banks busy for read cycles: 1139609
7banks busy for write cycles: 0
8banks busy for read cycles: 465243
8banks busy for write cycles: 0

CPU 0 Branch Prediction Accuracy: 99.9267% MPKI: 0.03682 Average ROB Occupancy at Mispredict: 64.8197
Branch types
NOT_BRANCH: 47488929 94.9779%
BRANCH_DIRECT_JUMP: 40 8e-05%
BRANCH_INDIRECT: 0 0%
BRANCH_CONDITIONAL: 2510869 5.02174%
BRANCH_DIRECT_CALL: 40 8e-05%
BRANCH_INDIRECT_CALL: 0 0%
BRANCH_RETURN: 40 8e-05%
BRANCH_OTHER: 0 0%

@sumon_overall_L1D    602785        81    105448    708247   9097102   9846194
@Sumon_Early_by_class_L1D    602016       769         0         0
@Sumon_Late_by_class_L1D        77         1         0         0

@Sumon_Early_by_cycle_L1D       504      1933     22630     13493     18388    229686    315670        76        14        29        64       298
@Sumon_Late_by_cycle_L1D        65        16         0         0         0         0         0         0         0         0         0         0
@Sumon_Early_stream_L1D       503      1932     22558     13455     18341    229081    315665        76        14        29        64       298
@Sumon_Early_CS_L1D         1         1        72        38        47       605         5         0         0         0         0         0
@Sumon_Early_CPLX_L1D         0         0         0         0         0         0         0         0         0         0         0         0
@Sumon_Late_stream_L1D        61        16         0         0         0         0         0         0         0         0         0         0
@Sumon_Late_CS_L1D         1         0         0         0         0         0         0         0         0         0         0         0
@Sumon_Late_CPLX_L1D         0         0         0         0         0         0         0         0         0         0         0         0
@sumon_overall_L2C     36068        24    679464    715147   3380549   3578201
@Sumon_Early_by_class_L2C     36041        27         0         0
@Sumon_Late_by_class_L2C        17         0         0         0

@Sumon_Early_by_cycle_L2C         2        90      3111      1277      2353     16043     12345       113         0         5        13       716
@Sumon_Late_by_cycle_L2C        19         5         0         0         0         0         0         0         0         0         0         0
@Sumon_Early_stream_L2C         2        90      3111      1277      2353     16016     12345       113         0         5        13       716
@Sumon_Early_CS_L2C         0         0         0         0         0        27         0         0         0         0         0         0
@Sumon_Early_CPLX_L2C         0         0         0         0         0         0         0         0         0         0         0         0
@Sumon_Late_stream_L2C        12         5         0         0         0         0         0         0         0         0         0         0
@Sumon_Late_CS_L2C         0         0         0         0         0         0         0         0         0         0         0         0
@Sumon_Late_CPLX_L2C         0         0         0         0         0         0         0         0         0         0         0         0
DRAM PAGES: 1048576
Allocated PAGES: 20110
