
*** ChampSim Multicore Out-of-Order Simulator ***

Warmup Instructions: 10000000
Simulation Instructions: 50000000
Number of CPUs: 1
LLC sets: 2048
LLC ways: 16
Off-chip DRAM Size: 4096 MB Channels: 1 Width: 64-bit Data Rate: 1600 MT/s
CPU 0 runs traces/SPEC2017/623.xalancbmk_s-165B.champsimtrace.xz
.xz
CPU 0 Bimodal branch predictor
BTB has LRU replacement policy
ITLB has LRU replacement policy
DTLB has LRU replacement policy
STLB has LRU replacement policy
L1I has LRU replacement policy
IP Table Entries: 256
L1D has LRU replacement policy
IP_Table L2 entries: 256
L2C has LRU replacement policy
LLC has LRU replacement policy
Heartbeat CPU 0 instructions: 10000000 cycles: 2852051 heartbeat IPC: 3.50625 cumulative IPC: 3.50625 (Simulation time: 0 hr 20 min 50 sec) 

Warmup complete CPU 0 instructions: 10000002 cycles: 2852053 (Simulation time: 0 hr 20 min 50 sec) 

Heartbeat CPU 0 instructions: 20000001 cycles: 17973678 heartbeat IPC: 0.661305 cumulative IPC: 0.661305 (Simulation time: 0 hr 36 min 28 sec) 
Heartbeat CPU 0 instructions: 30000000 cycles: 33051740 heartbeat IPC: 0.663215 cumulative IPC: 0.662258 (Simulation time: 0 hr 52 min 32 sec) 
Heartbeat CPU 0 instructions: 40000000 cycles: 48063693 heartbeat IPC: 0.666136 cumulative IPC: 0.663546 (Simulation time: 1 hr 8 min 52 sec) 
Heartbeat CPU 0 instructions: 50000001 cycles: 63243228 heartbeat IPC: 0.658782 cumulative IPC: 0.662348 (Simulation time: 1 hr 25 min 20 sec) 
Heartbeat CPU 0 instructions: 60000000 cycles: 78347246 heartbeat IPC: 0.662075 cumulative IPC: 0.662294 (Simulation time: 1 hr 41 min 0 sec) 
Finished CPU 0 instructions: 50000002 cycles: 75495222 cumulative IPC: 0.662294 (Simulation time: 1 hr 41 min 0 sec) 

ChampSim completed all CPUs

Region of Interest Statistics

CPU 0 cumulative IPC: 0.662294 instructions: 50000002 cycles: 75495222
ITLB TOTAL     ACCESS:    7286748  HIT:    7286748  MISS:          0  HIT %:        100  MISS %:          0   MPKI: 0
ITLB LOAD TRANSLATION ACCESS:    7286748  HIT:    7286748  MISS:          0  HIT %:        100  MISS %:          0   MPKI: 0
ITLB PREFETCH  REQUESTED:          0  ISSUED:          0  USEFUL:          0  USELESS:          0
ITLB USEFUL LOAD PREFETCHES:          0 PREFETCH ISSUED TO LOWER LEVEL:          0  ACCURACY: -nan
ITLB TIMELY PREFETCHES:          0 LATE PREFETCHES: 0 DROPPED PREFETCHES: 0
ITLB PREFETCHES SAME FILL-ORIGIN LEVEL: 0 DIFFERENT FILL-ORIGIN LEVEL: 0
ITLB AVERAGE MISS LATENCY: -nan cycles
ITLB RQ	ACCESS:    9258101	FORWARD:          0	MERGED:    1971354	TO_CACHE:    7286747

DTLB TOTAL     ACCESS:    7524852  HIT:    7506938  MISS:      17914  HIT %:    99.7619  MISS %:   0.238064   MPKI: 0.35828
DTLB LOAD TRANSLATION ACCESS:    7524852  HIT:    7506938  MISS:      17914  HIT %:    99.7619  MISS %:   0.238064   MPKI: 0.35828
DTLB PREFETCH  REQUESTED:          0  ISSUED:          0  USEFUL:          0  USELESS:          0
DTLB USEFUL LOAD PREFETCHES:          0 PREFETCH ISSUED TO LOWER LEVEL:          0  ACCURACY: -nan
DTLB TIMELY PREFETCHES:          0 LATE PREFETCHES: 0 DROPPED PREFETCHES: 0
DTLB PREFETCHES SAME FILL-ORIGIN LEVEL: 0 DIFFERENT FILL-ORIGIN LEVEL: 0
DTLB AVERAGE MISS LATENCY: 10.4007 cycles
DTLB RQ	ACCESS:    8131612	FORWARD:          0	MERGED:     606705	TO_CACHE:    7524907

STLB TOTAL     ACCESS:     621222  HIT:     621162  MISS:         60  HIT %:    99.9903  MISS %: 0.00965838   MPKI: 0.0012
STLB LOAD TRANSLATION ACCESS:      17914  HIT:      17854  MISS:         60  HIT %:    99.6651  MISS %:   0.334934   MPKI: 0.0012
STLB TRANSLATION FROM L1D PREFETCHER ACCESS:     603308  HIT:     603308  MISS:          0  HIT %:        100  MISS %:          0   MPKI: 0
STLB PREFETCH  REQUESTED:          0  ISSUED:          0  USEFUL:          0  USELESS:          0
STLB USEFUL LOAD PREFETCHES:          0 PREFETCH ISSUED TO LOWER LEVEL:          0  ACCURACY: -nan
STLB TIMELY PREFETCHES:          0 LATE PREFETCHES: 0 DROPPED PREFETCHES: 0
STLB PREFETCHES SAME FILL-ORIGIN LEVEL: 0 DIFFERENT FILL-ORIGIN LEVEL: 0
STLB AVERAGE MISS LATENCY: 418.05 cycles
STLB RQ	ACCESS:    1815579	FORWARD:          0	MERGED:    1194357	TO_CACHE:     621222

STLB Hit, L1D data hit: 0
STLB Hit, L2C data hit: 0
STLB Hit, LLC data hit: 0
STLB Hit, LLC data miss: 0
STLB STLB hints to L2: 0
L1D TOTAL     ACCESS:    9869267  HIT:    8825415  MISS:    1043852  HIT %:    89.4232  MISS %:    10.5768   MPKI: 20.877
L1D LOAD      ACCESS:    7430120  HIT:    7395882  MISS:      34238  HIT %:    99.5392  MISS %:     0.4608   MPKI: 0.68476
L1D RFO       ACCESS:     655686  HIT:     655576  MISS:        110  HIT %:    99.9832  MISS %:  0.0167763   MPKI: 0.0022
L1D PREFETCH  ACCESS:    1783461  HIT:     773957  MISS:    1009504  HIT %:    43.3964  MISS %:    56.6036   MPKI: 20.1901
L1D PREFETCH  REQUESTED:    3597956  ISSUED:    3595333  USEFUL:     907880  USELESS:     101608
L1D USEFUL LOAD PREFETCHES:     907880 PREFETCH ISSUED TO LOWER LEVEL:    1019151  ACCURACY: 89.082
L1D TIMELY PREFETCHES:     907880 LATE PREFETCHES: 42880 DROPPED PREFETCHES: 0
L1D PREFETCHES SAME FILL-ORIGIN LEVEL: 1019151 DIFFERENT FILL-ORIGIN LEVEL: 0
L1D AVERAGE MISS LATENCY: 473.178 cycles
L1D RQ	ACCESS:   14751940	FORWARD:          0	MERGED:    7276409	TO_CACHE:    7475527
L1D WQ	ACCESS:     656260	FORWARD:          7	MERGED:        175	TO_CACHE:     656085
L1D PQ	ACCESS:    1797668	FORWARD:          0	MERGED:          0	TO_CACHE:    1797665

L1D UNIQUE REGIONS ACCESSED: 0
L1D REGIONS CONFLICTS: 0
L1D Cross Page Prefetch Requests: 0
L1D Same Page Prefetch Requests: 2198299
L1D ROI Sum of L1D PQ occupancy: 25106042
L1D PREFETCHES PUSHED FROM L2C: 0
L1I TOTAL     ACCESS:    9258101  HIT:    9258101  MISS:          0  HIT %:        100  MISS %:          0   MPKI: 0
L1I LOAD      ACCESS:    9258101  HIT:    9258101  MISS:          0  HIT %:        100  MISS %:          0   MPKI: 0
L1I PREFETCH  REQUESTED:          0  ISSUED:          0  USEFUL:          0  USELESS:          0
L1I USEFUL LOAD PREFETCHES:          0 PREFETCH ISSUED TO LOWER LEVEL:          0  ACCURACY: -nan
L1I TIMELY PREFETCHES:          0 LATE PREFETCHES: 0 DROPPED PREFETCHES: 0
L1I PREFETCHES SAME FILL-ORIGIN LEVEL: 0 DIFFERENT FILL-ORIGIN LEVEL: 0
L1I AVERAGE MISS LATENCY: -nan cycles
L1I RQ	ACCESS:   18345958	FORWARD:          0	MERGED:    9087857	TO_CACHE:    9258101

BTB TOTAL     ACCESS:    8408284  HIT:    8407871  MISS:        413  HIT %:    99.9951  MISS %: 0.00491182   MPKI: 0.00826
BTB BRANCH_DIRECT_JUMP	ACCESS:        432  HIT:        430  MISS:          2
BTB BRANCH_INDIRECT	ACCESS:          0  HIT:          0  MISS:          0
BTB BRANCH_CONDITIONAL	ACCESS:    7758887  HIT:    7758854  MISS:         33
BTB BRANCH_DIRECT_CALL	ACCESS:     162578  HIT:     162565  MISS:         13
BTB BRANCH_INDIRECT_CALL	ACCESS:     161904  HIT:     161898  MISS:          6
BTB BRANCH_RETURN	ACCESS:     324483  HIT:     324124  MISS:        359
BTB BRANCH_OTHER ACCESS:          0  HIT:          0  MISS:          0

L2C TOTAL     ACCESS:    2369372  HIT:    1329421  MISS:    1039951  HIT %:    56.1086  MISS %:    43.8914   MPKI: 20.799
L2C LOAD      ACCESS:      34238  HIT:       1928  MISS:      32310  HIT %:    5.63117  MISS %:    94.3688   MPKI: 0.6462
L2C DATA LOAD MPKI: 0.6462
L2C INSTRUCTION LOAD MPKI: 0
L2C RFO       ACCESS:        101  HIT:          0  MISS:        101  HIT %:          0  MISS %:        100   MPKI: 0.00202
L2C PREFETCH  ACCESS:    2334561  HIT:    1327065  MISS:    1007496  HIT %:    56.8443  MISS %:    43.1557   MPKI: 20.1499
L2C DATA PREFETCH MPKI: 20.1499
L2C INSTRUCTION PREFETCH MPKI: 0
L2C WRITEBACK ACCESS:        412  HIT:        412  MISS:          0  HIT %:        100  MISS %:          0   MPKI: 0
L2C LOAD TRANSLATION ACCESS:         60  HIT:         16  MISS:         44  HIT %:    26.6667  MISS %:    73.3333   MPKI: 0.00088
L2C PREFETCH  REQUESTED:    2070690  ISSUED:    2055250  USEFUL:       1925  USELESS:    1005567
L2C USEFUL LOAD PREFETCHES:       1925 PREFETCH ISSUED TO LOWER LEVEL:    1007619  ACCURACY: 0.191044
L2C TIMELY PREFETCHES:       1925 LATE PREFETCHES: 118 DROPPED PREFETCHES: 0
L2C PREFETCHES SAME FILL-ORIGIN LEVEL: 557274 DIFFERENT FILL-ORIGIN LEVEL: 0
L2C AVERAGE MISS LATENCY: 193.16 cycles
L2C RQ	ACCESS:      34399	FORWARD:          0	MERGED:          0	TO_CACHE:      34399
L2C WQ	ACCESS:        412	FORWARD:          0	MERGED:          0	TO_CACHE:        412
L2C PQ	ACCESS:    3064765	FORWARD:          0	MERGED:     612317	TO_CACHE:    2452448

L2C Instructions Evicting Data 0
L2C Translations Evicting Data 44
L2C Data Evicting Data 1039863
L2C Instructions Evicting Instructions 0
L2C Translations Evicting Instructions 0
L2C Data Evicting Instructions 0
L2C Instructions Evicting Translations 0
L2C Translations Evicting Translations 0
L2C Data Evicting Translations 44
L2C Dense regions hint from L2: 0
PSCL5 TOTAL     ACCESS:         60  HIT:         60  MISS:          0  HIT %:        100  MISS %:          0   MPKI: 0
PSCL5 LOAD TRANSLATION ACCESS:         60  HIT:         60  MISS:          0  HIT %:        100  MISS %:          0   MPKI: 0
PSCL5 PREFETCH  REQUESTED:          0  ISSUED:          0  USEFUL:          0  USELESS:          0
PSCL5 USEFUL LOAD PREFETCHES:          0 PREFETCH ISSUED TO LOWER LEVEL:          0  ACCURACY: -nan
PSCL5 TIMELY PREFETCHES:          0 LATE PREFETCHES: 0 DROPPED PREFETCHES: 0
PSCL5 PREFETCHES SAME FILL-ORIGIN LEVEL: 0 DIFFERENT FILL-ORIGIN LEVEL: 0

PSCL4 TOTAL     ACCESS:         60  HIT:         60  MISS:          0  HIT %:        100  MISS %:          0   MPKI: 0
PSCL4 LOAD TRANSLATION ACCESS:         60  HIT:         60  MISS:          0  HIT %:        100  MISS %:          0   MPKI: 0
PSCL4 PREFETCH  REQUESTED:          0  ISSUED:          0  USEFUL:          0  USELESS:          0
PSCL4 USEFUL LOAD PREFETCHES:          0 PREFETCH ISSUED TO LOWER LEVEL:          0  ACCURACY: -nan
PSCL4 TIMELY PREFETCHES:          0 LATE PREFETCHES: 0 DROPPED PREFETCHES: 0
PSCL4 PREFETCHES SAME FILL-ORIGIN LEVEL: 0 DIFFERENT FILL-ORIGIN LEVEL: 0

PSCL3 TOTAL     ACCESS:         60  HIT:         60  MISS:          0  HIT %:        100  MISS %:          0   MPKI: 0
PSCL3 LOAD TRANSLATION ACCESS:         60  HIT:         60  MISS:          0  HIT %:        100  MISS %:          0   MPKI: 0
PSCL3 PREFETCH  REQUESTED:          0  ISSUED:          0  USEFUL:          0  USELESS:          0
PSCL3 USEFUL LOAD PREFETCHES:          0 PREFETCH ISSUED TO LOWER LEVEL:          0  ACCURACY: -nan
PSCL3 TIMELY PREFETCHES:          0 LATE PREFETCHES: 0 DROPPED PREFETCHES: 0
PSCL3 PREFETCHES SAME FILL-ORIGIN LEVEL: 0 DIFFERENT FILL-ORIGIN LEVEL: 0

PSCL2 TOTAL     ACCESS:         60  HIT:         60  MISS:          0  HIT %:        100  MISS %:          0   MPKI: 0
PSCL2 LOAD TRANSLATION ACCESS:         60  HIT:         60  MISS:          0  HIT %:        100  MISS %:          0   MPKI: 0
PSCL2 PREFETCH  REQUESTED:          0  ISSUED:          0  USEFUL:          0  USELESS:          0
PSCL2 USEFUL LOAD PREFETCHES:          0 PREFETCH ISSUED TO LOWER LEVEL:          0  ACCURACY: -nan
PSCL2 TIMELY PREFETCHES:          0 LATE PREFETCHES: 0 DROPPED PREFETCHES: 0
PSCL2 PREFETCHES SAME FILL-ORIGIN LEVEL: 0 DIFFERENT FILL-ORIGIN LEVEL: 0

LLC TOTAL     ACCESS:    1040364  HIT:       5924  MISS:    1034440  HIT %:   0.569416  MISS %:    99.4306   MPKI: 20.6888
LLC LOAD      ACCESS:      32192  HIT:       2488  MISS:      29704  HIT %:    7.72863  MISS %:    92.2714   MPKI: 0.59408
LLC RFO       ACCESS:        101  HIT:          0  MISS:        101  HIT %:          0  MISS %:        100   MPKI: 0.00202
LLC PREFETCH  ACCESS:    1007615  HIT:       3024  MISS:    1004591  HIT %:   0.300115  MISS %:    99.6999   MPKI: 20.0918
LLC WRITEBACK ACCESS:        412  HIT:        412  MISS:          0  HIT %:        100  MISS %:          0   MPKI: 0
LLC LOAD TRANSLATION ACCESS:         44  HIT:          0  MISS:         44  HIT %:          0  MISS %:        100   MPKI: 0.00088
LLC PREFETCH  REQUESTED:          0  ISSUED:          0  USEFUL:          3  USELESS:    1004640
LLC USEFUL LOAD PREFETCHES:          3 PREFETCH ISSUED TO LOWER LEVEL:    1004595  ACCURACY: 0.000298628
LLC TIMELY PREFETCHES:          3 LATE PREFETCHES: 0 DROPPED PREFETCHES: 0
LLC PREFETCHES SAME FILL-ORIGIN LEVEL: 0 DIFFERENT FILL-ORIGIN LEVEL: 0
LLC AVERAGE MISS LATENCY: 164.037 cycles
LLC RQ	ACCESS:      32337	FORWARD:          0	MERGED:          0	TO_CACHE:      32337
LLC WQ	ACCESS:        412	FORWARD:          0	MERGED:          0	TO_CACHE:        412
LLC PQ	ACCESS:    1007619	FORWARD:          0	MERGED:          0	TO_CACHE:    1007619

LLC Dense regions hint to LLC: 0

RAW hits: 495
Loads Generated: 14752436
Loads sent to L1D: 14751940
Stores Generated: 656260
Stores sent to L1D: 656260
Major fault: 0 Minor fault: 716
Allocated PAGES: 716

stream: 
stream:times selected: 2504201
stream:pref_filled: 246412
stream:pref_useful: 213937
stream:pref_late: 26174
stream:misses: 62548
stream:misses_by_poll: 0

CS: 
CS:times selected: 1862752
CS:pref_filled: 674189
CS:pref_useful: 591000
CS:pref_late: 175
CS:misses: 18567
CS:misses_by_poll: 3745

CPLX: 
CPLX:times selected: 641198
CPLX:pref_filled: 289108
CPLX:pref_useful: 283152
CPLX:pref_late: 24
CPLX:misses: 13559
CPLX:misses_by_poll: 973

NL_L1: 
NL:times selected: 37
NL:pref_filled: 22
NL:pref_useful: 11
NL:pref_late: 7
NL:misses: 10
NL:misses_by_poll: 0

total selections: 5008188
total_filled: 1009504
total_useful: 907880
total_late: 26381
total_polluted: 4718
total_misses_after_warmup: 79646
conflicts: 485
Degree Incremented Times: 107320
Degree Decremented Times: 0

L1 IP Table Write Accesses: 7286610
L1 IP Table Read Accesses: 7286125
L1 RST Write Accesses: 2066844
L1 RST Read Accesses: 4133688
L1 CSPT Write Accesses: 2066844
L1 CSPT Read Accesses: 3395561
L1 RR Filter Tag Write Accesses: 1800291
L1 RR Filter Tag Read Accesses: 337653381
L1 IP Table Tag Write Accesses: 7475528
L1 IP Table Tag Read Accesses: 7475528
L1 RST Tag Write Accesses: 0
L1 RST Tag Read Accesses: 18674889
L1 RR Filter Write Accesses: 0
L1 RR Filter Read Accesses: 16747575
test: 259245
L2 IP Table Read Accesses: 1826378
L2 IP Table Write Accesses: 1792271
L2 IP Table Tag Read Accesses: 913280
L2 IP Table Tag Write Accesses: 913280

DRAM Statistics
 CHANNEL 0
 RQ ROW_BUFFER_HIT:     989862  ROW_BUFFER_MISS:      44579
 DBUS_CONGESTED:     845191
 WQ ROW_BUFFER_HIT:         48  ROW_BUFFER_MISS:        364  FULL:          0

 AVG_CONGESTED_CYCLE: 14
 All warmup complete: 2
Channel 0 Bank busy for read cycles: 0
Channel 0 Bank busy for write cycles: 0
Channel 0
Rank 0
0banks busy for read cycles: 52816055
0banks busy for write cycles: 147
1banks busy for read cycles: 5271066
1banks busy for write cycles: 12830
2banks busy for read cycles: 2558226
2banks busy for write cycles: 9755
3banks busy for read cycles: 2330923
3banks busy for write cycles: 3618
4banks busy for read cycles: 2147040
4banks busy for write cycles: 4632
5banks busy for read cycles: 1874028
5banks busy for write cycles: 5357
6banks busy for read cycles: 2102138
6banks busy for write cycles: 402
7banks busy for read cycles: 2747008
7banks busy for write cycles: 1313
8banks busy for read cycles: 3610269
8banks busy for write cycles: 416

CPU 0 Branch Prediction Accuracy: 96.5207% MPKI: 9.7029 Average ROB Occupancy at Mispredict: 37.4526
Branch types
NOT_BRANCH: 36055972 72.1119%
BRANCH_DIRECT_JUMP: 432 0.000864%
BRANCH_INDIRECT: 0 0%
BRANCH_CONDITIONAL: 13294297 26.5886%
BRANCH_DIRECT_CALL: 162578 0.325156%
BRANCH_INDIRECT_CALL: 161904 0.323808%
BRANCH_RETURN: 324483 0.648966%
BRANCH_OTHER: 0 0%

@sumon_overall_L1D    907880     42880    101608   1009504   3595333   3597956
@Sumon_Early_by_class_L1D    177191    512622    218034         7
@Sumon_Late_by_class_L1D     22805       175        10         7

@Sumon_Early_by_cycle_L1D     14920     18258    145892     71491    105893    478949     51184       604      1678     18988        21         2
@Sumon_Late_by_cycle_L1D     14903      7738       357         0         0         0         0         0         0         0         0         0
@Sumon_Early_stream_L1D     13633     17236    115830      8944      1099       172       391       449      1206     18226         3         2
@Sumon_Early_CS_L1D      1168       859     25970     38373     82639    356162      6512       102       339       494         4         0
@Sumon_Early_CPLX_L1D       115       162      4087     24170     22150    122601     44281        53       133       268        14         0
@Sumon_Late_stream_L1D     14737      7711       357         0         0         0         0         0         0         0         0         0
@Sumon_Late_CS_L1D       156        19         0         0         0         0         0         0         0         0         0         0
@Sumon_Late_CPLX_L1D        10         0         0         0         0         0         0         0         0         0         0         0
@sumon_overall_L2C      1925       118   1005567   1007496   2055250   2070690
@Sumon_Early_by_class_L2C      1055       808        58         0
@Sumon_Late_by_class_L2C       113         3         0         0

@Sumon_Early_by_cycle_L2C       260        32       391       267        68       448       130         3         0        79        28       219
@Sumon_Late_by_cycle_L2C        74        39         5         0         0         0         0         0         0         0         0         0
@Sumon_Early_stream_L2C       255        29       366       255        56         5         9         2         0        69         1         8
@Sumon_Early_CS_L2C         2         2        25        12        12       443       121         1         0         8        27       155
@Sumon_Early_CPLX_L2C         0         0         0         0         0         0         0         0         0         2         0        56
@Sumon_Late_stream_L2C        69        39         5         0         0         0         0         0         0         0         0         0
@Sumon_Late_CS_L2C         3         0         0         0         0         0         0         0         0         0         0         0
@Sumon_Late_CPLX_L2C         0         0         0         0         0         0         0         0         0         0         0         0
DRAM PAGES: 1048576
Allocated PAGES: 716
