
*** ChampSim Multicore Out-of-Order Simulator ***

Warmup Instructions: 10000000
Simulation Instructions: 50000000
Number of CPUs: 1
LLC sets: 2048
LLC ways: 16
Off-chip DRAM Size: 4096 MB Channels: 1 Width: 64-bit Data Rate: 533 MT/s
CPU 0 runs traces/SPEC2017/602.gcc_s-1850B.champsimtrace.xz
.xz
CPU 0 Bimodal branch predictor
BTB has LRU replacement policy
ITLB has LRU replacement policy
DTLB has LRU replacement policy
STLB has LRU replacement policy
L1I has LRU replacement policy
IP Table Entries: 256
L1D has LRU replacement policy
IP_Table L2 entries: 256
L2C has LRU replacement policy
LLC has LRU replacement policy
Heartbeat CPU 0 instructions: 10000002 cycles: 3263160 heartbeat IPC: 3.06451 cumulative IPC: 3.06451 (Simulation time: 0 hr 24 min 32 sec) 

Warmup complete CPU 0 instructions: 10000002 cycles: 3263160 (Simulation time: 0 hr 24 min 32 sec) 

Heartbeat CPU 0 instructions: 20000000 cycles: 34171924 heartbeat IPC: 0.323533 cumulative IPC: 0.323533 (Simulation time: 0 hr 45 min 48 sec) 
Heartbeat CPU 0 instructions: 30000000 cycles: 65058865 heartbeat IPC: 0.323761 cumulative IPC: 0.323647 (Simulation time: 1 hr 7 min 5 sec) 
Heartbeat CPU 0 instructions: 40000000 cycles: 95999504 heartbeat IPC: 0.3232 cumulative IPC: 0.323498 (Simulation time: 1 hr 28 min 22 sec) 
Heartbeat CPU 0 instructions: 50000000 cycles: 126850702 heartbeat IPC: 0.324137 cumulative IPC: 0.323657 (Simulation time: 1 hr 48 min 59 sec) 
Heartbeat CPU 0 instructions: 60000003 cycles: 157704803 heartbeat IPC: 0.324106 cumulative IPC: 0.323747 (Simulation time: 2 hr 5 min 39 sec) 
Finished CPU 0 instructions: 50000001 cycles: 154441643 cumulative IPC: 0.323747 (Simulation time: 2 hr 5 min 39 sec) 

ChampSim completed all CPUs

Region of Interest Statistics

CPU 0 cumulative IPC: 0.323747 instructions: 50000001 cycles: 154441643
ITLB TOTAL     ACCESS:    7742183  HIT:    7742183  MISS:          0  HIT %:        100  MISS %:          0   MPKI: 0
ITLB LOAD TRANSLATION ACCESS:    7742183  HIT:    7742183  MISS:          0  HIT %:        100  MISS %:          0   MPKI: 0
ITLB PREFETCH  REQUESTED:          0  ISSUED:          0  USEFUL:          0  USELESS:          0
ITLB USEFUL LOAD PREFETCHES:          0 PREFETCH ISSUED TO LOWER LEVEL:          0  ACCURACY: -nan
ITLB TIMELY PREFETCHES:          0 LATE PREFETCHES: 0 DROPPED PREFETCHES: 0
ITLB PREFETCHES SAME FILL-ORIGIN LEVEL: 0 DIFFERENT FILL-ORIGIN LEVEL: 0
ITLB AVERAGE MISS LATENCY: -nan cycles
ITLB RQ	ACCESS:    8571789	FORWARD:          0	MERGED:     829606	TO_CACHE:    7742183

DTLB TOTAL     ACCESS:   14942916  HIT:   14926524  MISS:      16392  HIT %:    99.8903  MISS %:   0.109697   MPKI: 0.32784
DTLB LOAD TRANSLATION ACCESS:   14942916  HIT:   14926524  MISS:      16392  HIT %:    99.8903  MISS %:   0.109697   MPKI: 0.32784
DTLB PREFETCH  REQUESTED:          0  ISSUED:          0  USEFUL:          0  USELESS:          0
DTLB USEFUL LOAD PREFETCHES:          0 PREFETCH ISSUED TO LOWER LEVEL:          0  ACCURACY: -nan
DTLB TIMELY PREFETCHES:          0 LATE PREFETCHES: 0 DROPPED PREFETCHES: 0
DTLB PREFETCHES SAME FILL-ORIGIN LEVEL: 0 DIFFERENT FILL-ORIGIN LEVEL: 0
DTLB AVERAGE MISS LATENCY: 149.872 cycles
DTLB RQ	ACCESS:   15258772	FORWARD:          0	MERGED:     315705	TO_CACHE:   14943067

STLB TOTAL     ACCESS:    1892392  HIT:    1877206  MISS:      15186  HIT %:    99.1975  MISS %:   0.802476   MPKI: 0.30372
STLB LOAD TRANSLATION ACCESS:      16392  HIT:       1206  MISS:      15186  HIT %:    7.35725  MISS %:    92.6428   MPKI: 0.30372
STLB TRANSLATION FROM L1D PREFETCHER ACCESS:    1876000  HIT:    1876000  MISS:          0  HIT %:        100  MISS %:          0   MPKI: 0
STLB PREFETCH  REQUESTED:          0  ISSUED:          0  USEFUL:          0  USELESS:          0
STLB USEFUL LOAD PREFETCHES:          0 PREFETCH ISSUED TO LOWER LEVEL:          0  ACCURACY: -nan
STLB TIMELY PREFETCHES:          0 LATE PREFETCHES: 0 DROPPED PREFETCHES: 0
STLB PREFETCHES SAME FILL-ORIGIN LEVEL: 0 DIFFERENT FILL-ORIGIN LEVEL: 0
STLB AVERAGE MISS LATENCY: 152.035 cycles
STLB RQ	ACCESS:    3621207	FORWARD:          0	MERGED:    1728815	TO_CACHE:    1892392

STLB Hit, L1D data hit: 0
STLB Hit, L2C data hit: 0
STLB Hit, LLC data hit: 0
STLB Hit, LLC data miss: 0
STLB STLB hints to L2: 0
L1D TOTAL     ACCESS:   18779176  HIT:   17378642  MISS:    1400534  HIT %:    92.5421  MISS %:    7.45791   MPKI: 28.0107
L1D LOAD      ACCESS:   10919835  HIT:   10760618  MISS:     159217  HIT %:    98.5419  MISS %:    1.45805   MPKI: 3.18434
L1D RFO       ACCESS:    4315586  HIT:    4315399  MISS:        187  HIT %:    99.9957  MISS %: 0.00433313   MPKI: 0.00374
L1D PREFETCH  ACCESS:    3543755  HIT:    2302625  MISS:    1241130  HIT %:     64.977  MISS %:     35.023   MPKI: 24.8226
L1D PREFETCH  REQUESTED:    7209647  ISSUED:    7209630  USEFUL:    1018600  USELESS:     222523
L1D USEFUL LOAD PREFETCHES:    1018600 PREFETCH ISSUED TO LOWER LEVEL:    1301017  ACCURACY: 78.2926
L1D TIMELY PREFETCHES:    1018600 LATE PREFETCHES: 59522 DROPPED PREFETCHES: 0
L1D PREFETCHES SAME FILL-ORIGIN LEVEL: 1301017 DIFFERENT FILL-ORIGIN LEVEL: 0
L1D AVERAGE MISS LATENCY: 3.42051e+06 cycles
L1D RQ	ACCESS:   13897925	FORWARD:          0	MERGED:    2954739	TO_CACHE:   10943186
L1D WQ	ACCESS:    4852413	FORWARD:          0	MERGED:     536827	TO_CACHE:    4315586
L1D PQ	ACCESS:    3604815	FORWARD:          0	MERGED:          0	TO_CACHE:    3604815

L1D UNIQUE REGIONS ACCESSED: 0
L1D REGIONS CONFLICTS: 0
L1D Cross Page Prefetch Requests: 0
L1D Same Page Prefetch Requests: 4233213
L1D ROI Sum of L1D PQ occupancy: 48630497
L1D PREFETCHES PUSHED FROM L2C: 0
L1I TOTAL     ACCESS:    8571788  HIT:    8571788  MISS:          0  HIT %:        100  MISS %:          0   MPKI: 0
L1I LOAD      ACCESS:    8571788  HIT:    8571788  MISS:          0  HIT %:        100  MISS %:          0   MPKI: 0
L1I PREFETCH  REQUESTED:          0  ISSUED:          0  USEFUL:          0  USELESS:          0
L1I USEFUL LOAD PREFETCHES:          0 PREFETCH ISSUED TO LOWER LEVEL:          0  ACCURACY: -nan
L1I TIMELY PREFETCHES:          0 LATE PREFETCHES: 0 DROPPED PREFETCHES: 0
L1I PREFETCHES SAME FILL-ORIGIN LEVEL: 0 DIFFERENT FILL-ORIGIN LEVEL: 0
L1I AVERAGE MISS LATENCY: -nan cycles
L1I RQ	ACCESS:   13331255	FORWARD:          0	MERGED:    4759466	TO_CACHE:    8571789

BTB TOTAL     ACCESS:    8191456  HIT:    8191427  MISS:         29  HIT %:    99.9996  MISS %: 0.000354027   MPKI: 0.00058
BTB BRANCH_DIRECT_JUMP	ACCESS:    1079511  HIT:    1079502  MISS:          9
BTB BRANCH_INDIRECT	ACCESS:          0  HIT:          0  MISS:          0
BTB BRANCH_CONDITIONAL	ACCESS:    6031849  HIT:    6031835  MISS:         14
BTB BRANCH_DIRECT_CALL	ACCESS:     540048  HIT:     540045  MISS:          3
BTB BRANCH_INDIRECT_CALL	ACCESS:          0  HIT:          0  MISS:          0
BTB BRANCH_RETURN	ACCESS:     540048  HIT:     540045  MISS:          3
BTB BRANCH_OTHER ACCESS:          0  HIT:          0  MISS:          0

L2C TOTAL     ACCESS:    4202408  HIT:    3271116  MISS:     931292  HIT %:    77.8391  MISS %:    22.1609   MPKI: 18.6258
L2C LOAD      ACCESS:      99695  HIT:      82175  MISS:      17520  HIT %:    82.4264  MISS %:    17.5736   MPKI: 0.3504
L2C DATA LOAD MPKI: 0.3504
L2C INSTRUCTION LOAD MPKI: 0
L2C RFO       ACCESS:        187  HIT:        181  MISS:          6  HIT %:    96.7914  MISS %:    3.20856   MPKI: 0.00012
L2C PREFETCH  ACCESS:    4084051  HIT:    3172962  MISS:     911089  HIT %:    77.6915  MISS %:    22.3085   MPKI: 18.2218
L2C DATA PREFETCH MPKI: 18.2218
L2C INSTRUCTION PREFETCH MPKI: 0
L2C WRITEBACK ACCESS:       3224  HIT:       3224  MISS:          0  HIT %:        100  MISS %:          0   MPKI: 0
L2C LOAD TRANSLATION ACCESS:      15251  HIT:      12574  MISS:       2677  HIT %:    82.4471  MISS %:    17.5529   MPKI: 0.05354
L2C PREFETCH  REQUESTED:    4078722  ISSUED:    4078550  USEFUL:       6940  USELESS:     904139
L2C USEFUL LOAD PREFETCHES:       6940 PREFETCH ISSUED TO LOWER LEVEL:     911516  ACCURACY: 0.761369
L2C TIMELY PREFETCHES:       6940 LATE PREFETCHES: 427 DROPPED PREFETCHES: 0
L2C PREFETCHES SAME FILL-ORIGIN LEVEL: 666803 DIFFERENT FILL-ORIGIN LEVEL: 0
L2C AVERAGE MISS LATENCY: 213.308 cycles
L2C RQ	ACCESS:     115133	FORWARD:          0	MERGED:          0	TO_CACHE:     115133
L2C WQ	ACCESS:       3224	FORWARD:          0	MERGED:          0	TO_CACHE:       3224
L2C PQ	ACCESS:    5379198	FORWARD:          0	MERGED:     946502	TO_CACHE:    4432696

L2C Instructions Evicting Data 0
L2C Translations Evicting Data 2671
L2C Data Evicting Data 925936
L2C Instructions Evicting Instructions 0
L2C Translations Evicting Instructions 0
L2C Data Evicting Instructions 0
L2C Instructions Evicting Translations 0
L2C Translations Evicting Translations 6
L2C Data Evicting Translations 2679
L2C Dense regions hint from L2: 0
PSCL5 TOTAL     ACCESS:      15186  HIT:      15186  MISS:          0  HIT %:        100  MISS %:          0   MPKI: 0
PSCL5 LOAD TRANSLATION ACCESS:      15186  HIT:      15186  MISS:          0  HIT %:        100  MISS %:          0   MPKI: 0
PSCL5 PREFETCH  REQUESTED:          0  ISSUED:          0  USEFUL:          0  USELESS:          0
PSCL5 USEFUL LOAD PREFETCHES:          0 PREFETCH ISSUED TO LOWER LEVEL:          0  ACCURACY: -nan
PSCL5 TIMELY PREFETCHES:          0 LATE PREFETCHES: 0 DROPPED PREFETCHES: 0
PSCL5 PREFETCHES SAME FILL-ORIGIN LEVEL: 0 DIFFERENT FILL-ORIGIN LEVEL: 0

PSCL4 TOTAL     ACCESS:      15186  HIT:      15186  MISS:          0  HIT %:        100  MISS %:          0   MPKI: 0
PSCL4 LOAD TRANSLATION ACCESS:      15186  HIT:      15186  MISS:          0  HIT %:        100  MISS %:          0   MPKI: 0
PSCL4 PREFETCH  REQUESTED:          0  ISSUED:          0  USEFUL:          0  USELESS:          0
PSCL4 USEFUL LOAD PREFETCHES:          0 PREFETCH ISSUED TO LOWER LEVEL:          0  ACCURACY: -nan
PSCL4 TIMELY PREFETCHES:          0 LATE PREFETCHES: 0 DROPPED PREFETCHES: 0
PSCL4 PREFETCHES SAME FILL-ORIGIN LEVEL: 0 DIFFERENT FILL-ORIGIN LEVEL: 0

PSCL3 TOTAL     ACCESS:      15186  HIT:      15186  MISS:          0  HIT %:        100  MISS %:          0   MPKI: 0
PSCL3 LOAD TRANSLATION ACCESS:      15186  HIT:      15186  MISS:          0  HIT %:        100  MISS %:          0   MPKI: 0
PSCL3 PREFETCH  REQUESTED:          0  ISSUED:          0  USEFUL:          0  USELESS:          0
PSCL3 USEFUL LOAD PREFETCHES:          0 PREFETCH ISSUED TO LOWER LEVEL:          0  ACCURACY: -nan
PSCL3 TIMELY PREFETCHES:          0 LATE PREFETCHES: 0 DROPPED PREFETCHES: 0
PSCL3 PREFETCHES SAME FILL-ORIGIN LEVEL: 0 DIFFERENT FILL-ORIGIN LEVEL: 0

PSCL2 TOTAL     ACCESS:      15186  HIT:      15015  MISS:        171  HIT %:     98.874  MISS %:    1.12604   MPKI: 0.00342
PSCL2 LOAD TRANSLATION ACCESS:      15186  HIT:      15015  MISS:        171  HIT %:     98.874  MISS %:    1.12604   MPKI: 0.00342
PSCL2 PREFETCH  REQUESTED:          0  ISSUED:          0  USEFUL:          0  USELESS:          0
PSCL2 USEFUL LOAD PREFETCHES:          0 PREFETCH ISSUED TO LOWER LEVEL:          0  ACCURACY: -nan
PSCL2 TIMELY PREFETCHES:          0 LATE PREFETCHES: 0 DROPPED PREFETCHES: 0
PSCL2 PREFETCHES SAME FILL-ORIGIN LEVEL: 0 DIFFERENT FILL-ORIGIN LEVEL: 0

LLC TOTAL     ACCESS:     932553  HIT:       9332  MISS:     923221  HIT %:    1.00069  MISS %:    98.9993   MPKI: 18.4644
LLC LOAD      ACCESS:      17093  HIT:        188  MISS:      16905  HIT %:    1.09987  MISS %:    98.9001   MPKI: 0.3381
LLC RFO       ACCESS:          6  HIT:          0  MISS:          6  HIT %:          0  MISS %:        100   MPKI: 0.00012
LLC PREFETCH  ACCESS:     911516  HIT:       7702  MISS:     903814  HIT %:   0.844966  MISS %:     99.155   MPKI: 18.0763
LLC WRITEBACK ACCESS:       1261  HIT:       1261  MISS:          0  HIT %:        100  MISS %:          0   MPKI: 0
LLC LOAD TRANSLATION ACCESS:       2677  HIT:        181  MISS:       2496  HIT %:     6.7613  MISS %:    93.2387   MPKI: 0.04992
LLC PREFETCH  REQUESTED:          0  ISSUED:          0  USEFUL:         89  USELESS:     903679
LLC USEFUL LOAD PREFETCHES:         89 PREFETCH ISSUED TO LOWER LEVEL:     903814  ACCURACY: 0.00984716
LLC TIMELY PREFETCHES:         89 LATE PREFETCHES: 0 DROPPED PREFETCHES: 0
LLC PREFETCHES SAME FILL-ORIGIN LEVEL: 0 DIFFERENT FILL-ORIGIN LEVEL: 0
LLC AVERAGE MISS LATENCY: 184.967 cycles
LLC RQ	ACCESS:      19776	FORWARD:          0	MERGED:          0	TO_CACHE:      19776
LLC WQ	ACCESS:       1261	FORWARD:          0	MERGED:          0	TO_CACHE:       1261
LLC PQ	ACCESS:     911516	FORWARD:          0	MERGED:          0	TO_CACHE:     911516

LLC Dense regions hint to LLC: 0

RAW hits: 0
Loads Generated: 13897925
Loads sent to L1D: 13897925
Stores Generated: 4852411
Stores sent to L1D: 4852413
Major fault: 0 Minor fault: 18384
Allocated PAGES: 18384

stream: 
stream:times selected: 6544176
stream:pref_filled: 1110095
stream:pref_useful: 914961
stream:pref_late: 46976
stream:misses: 9540
stream:misses_by_poll: 0

CS: 
CS:times selected: 2469305
CS:pref_filled: 84554
CS:pref_useful: 81700
CS:pref_late: 10693
CS:misses: 109460
CS:misses_by_poll: 767

CPLX: 
CPLX:times selected: 4069697
CPLX:pref_filled: 302699
CPLX:pref_useful: 235094
CPLX:pref_late: 1784
CPLX:misses: 68305
CPLX:misses_by_poll: 2755

NL_L1: 
NL:times selected: 30398
NL:pref_filled: 389
NL:pref_useful: 313
NL:pref_late: 25
NL:misses: 1317
NL:misses_by_poll: 0

total selections: 13113576
total_filled: 1241130
total_useful: 1018600
total_late: 60344
total_polluted: 3522
total_misses_after_warmup: 182568
conflicts: 0
Degree Incremented Times: 150986
Degree Decremented Times: 0

L1 IP Table Write Accesses: 10938354
L1 IP Table Read Accesses: 10938354
L1 RST Write Accesses: 5522217
L1 RST Read Accesses: 11044434
L1 CSPT Write Accesses: 5522217
L1 CSPT Read Accesses: 15037945
L1 RR Filter Tag Write Accesses: 3604832
L1 RR Filter Tag Read Accesses: 864601578
L1 IP Table Tag Write Accesses: 10943186
L1 IP Table Tag Read Accesses: 10943186
L1 RST Tag Write Accesses: 0
L1 RST Tag Read Accesses: 49334404
L1 RR Filter Write Accesses: 0
L1 RR Filter Read Accesses: 39458333
test: 1099153
L2 IP Table Read Accesses: 2108295
L2 IP Table Write Accesses: 2008601
L2 IP Table Tag Read Accesses: 1054148
L2 IP Table Tag Write Accesses: 1054148

DRAM Statistics
 CHANNEL 0
 RQ ROW_BUFFER_HIT:     858983  ROW_BUFFER_MISS:      64238
 DBUS_CONGESTED:     608867
 WQ ROW_BUFFER_HIT:        321  ROW_BUFFER_MISS:        944  FULL:          0

 AVG_CONGESTED_CYCLE: 51
 All warmup complete: 2
Channel 0 Bank busy for read cycles: 0
Channel 0 Bank busy for write cycles: 0
Channel 0
Rank 0
0banks busy for read cycles: 102286645
0banks busy for write cycles: 665
1banks busy for read cycles: 20500894
1banks busy for write cycles: 99757
2banks busy for read cycles: 10236927
2banks busy for write cycles: 35001
3banks busy for read cycles: 6435214
3banks busy for write cycles: 15625
4banks busy for read cycles: 4497590
4banks busy for write cycles: 10109
5banks busy for read cycles: 3389727
5banks busy for write cycles: 5437
6banks busy for read cycles: 2613791
6banks busy for write cycles: 3852
7banks busy for read cycles: 2142559
7banks busy for write cycles: 3437
8banks busy for read cycles: 2163178
8banks busy for write cycles: 1236

CPU 0 Branch Prediction Accuracy: 92.2655% MPKI: 19.8309 Average ROB Occupancy at Mispredict: 30.6826
Branch types
NOT_BRANCH: 37179936 74.3599%
BRANCH_DIRECT_JUMP: 1079511 2.15902%
BRANCH_INDIRECT: 0 0%
BRANCH_CONDITIONAL: 10660171 21.3203%
BRANCH_DIRECT_CALL: 540048 1.0801%
BRANCH_INDIRECT_CALL: 0 0%
BRANCH_RETURN: 540048 1.0801%
BRANCH_OTHER: 0 0%

@sumon_overall_L1D   1018600     59522    222523   1241130   7209630   7209647
@Sumon_Early_by_class_L1D    747606     64299    206439        23
@Sumon_Late_by_class_L1D     46359     10526      1770        23

@Sumon_Early_by_cycle_L1D     28534     70516     93993    112509    117072    401401     80345     33592     37345     39615      3146       532
@Sumon_Late_by_cycle_L1D     57464      1288       747        22         1         0         0         0         0         0         0         0
@Sumon_Early_stream_L1D     19382     59513     73474     88681     94849    323456     23338     10272     23190     31080       371         0
@Sumon_Early_CS_L1D      6698      7034     12608     13382     10015      6556       300       485      5421      1799         1         0
@Sumon_Early_CPLX_L1D      2419      3872      7844     10443     12208     71389     56704     22834      8727      6693      2774       532
@Sumon_Late_stream_L1D     44859       879       607        13         1         0         0         0         0         0         0         0
@Sumon_Late_CS_L1D     10033       371       115         7         0         0         0         0         0         0         0         0
@Sumon_Late_CPLX_L1D      1707        36        25         2         0         0         0         0         0         0         0         0
@sumon_overall_L2C      6940       427    904139    911089   4078550   4078722
@Sumon_Early_by_class_L2C      6394       235       309         0
@Sumon_Late_by_class_L2C       281        64         0         0

@Sumon_Early_by_cycle_L2C       172       246       308       280       218       772       152         2         3         3      1408      3376
@Sumon_Late_by_cycle_L2C       387        24        13         3         0         0         0         0         0         0         0         0
@Sumon_Early_stream_L2C       160       230       288       262       196       751       149         2         3         3      1315      3035
@Sumon_Early_CS_L2C        12        16        20        18        22        21         3         0         0         0        35        88
@Sumon_Early_CPLX_L2C         0         0         0         0         0         0         0         0         0         0        58       251
@Sumon_Late_stream_L2C       241        24        13         3         0         0         0         0         0         0         0         0
@Sumon_Late_CS_L2C        64         0         0         0         0         0         0         0         0         0         0         0
@Sumon_Late_CPLX_L2C         0         0         0         0         0         0         0         0         0         0         0         0
DRAM PAGES: 1048576
Allocated PAGES: 18384
