
*** ChampSim Multicore Out-of-Order Simulator ***

Warmup Instructions: 10000000
Simulation Instructions: 50000000
Number of CPUs: 1
LLC sets: 2048
LLC ways: 16
Off-chip DRAM Size: 4096 MB Channels: 1 Width: 64-bit Data Rate: 533 MT/s
CPU 0 runs traces/SPEC2017/605.mcf_s-472B.champsimtrace.xz
.xz
CPU 0 Bimodal branch predictor
BTB has LRU replacement policy
ITLB has LRU replacement policy
DTLB has LRU replacement policy
STLB has LRU replacement policy
L1I has LRU replacement policy
IP Table Entries: 256
L1D has LRU replacement policy
IP_Table L2 entries: 256
L2C has LRU replacement policy
LLC has LRU replacement policy
Heartbeat CPU 0 instructions: 10000001 cycles: 3195178 heartbeat IPC: 3.12972 cumulative IPC: 3.12972 (Simulation time: 0 hr 28 min 37 sec) 

Warmup complete CPU 0 instructions: 10000001 cycles: 3195178 (Simulation time: 0 hr 28 min 37 sec) 

Heartbeat CPU 0 instructions: 20000000 cycles: 73288395 heartbeat IPC: 0.142667 cumulative IPC: 0.142667 (Simulation time: 1 hr 23 min 24 sec) 
Heartbeat CPU 0 instructions: 30000001 cycles: 158149609 heartbeat IPC: 0.117839 cumulative IPC: 0.12907 (Simulation time: 2 hr 13 min 59 sec) 
Heartbeat CPU 0 instructions: 40000000 cycles: 203887652 heartbeat IPC: 0.218636 cumulative IPC: 0.149482 (Simulation time: 2 hr 33 min 34 sec) 
Heartbeat CPU 0 instructions: 50000000 cycles: 256069809 heartbeat IPC: 0.191636 cumulative IPC: 0.158181 (Simulation time: 2 hr 55 min 38 sec) 
Heartbeat CPU 0 instructions: 60000001 cycles: 309035446 heartbeat IPC: 0.188802 cumulative IPC: 0.163484 (Simulation time: 3 hr 10 min 4 sec) 
Finished CPU 0 instructions: 50000000 cycles: 305840268 cumulative IPC: 0.163484 (Simulation time: 3 hr 10 min 4 sec) 

ChampSim completed all CPUs

Region of Interest Statistics

CPU 0 cumulative IPC: 0.163484 instructions: 50000000 cycles: 305840268
ITLB TOTAL     ACCESS:    8833688  HIT:    8833688  MISS:          0  HIT %:        100  MISS %:          0   MPKI: 0
ITLB LOAD TRANSLATION ACCESS:    8833688  HIT:    8833688  MISS:          0  HIT %:        100  MISS %:          0   MPKI: 0
ITLB PREFETCH  REQUESTED:          0  ISSUED:          0  USEFUL:          0  USELESS:          0
ITLB USEFUL LOAD PREFETCHES:          0 PREFETCH ISSUED TO LOWER LEVEL:          0  ACCURACY: -nan
ITLB TIMELY PREFETCHES:          0 LATE PREFETCHES: 0 DROPPED PREFETCHES: 0
ITLB PREFETCHES SAME FILL-ORIGIN LEVEL: 0 DIFFERENT FILL-ORIGIN LEVEL: 0
ITLB AVERAGE MISS LATENCY: -nan cycles
ITLB RQ	ACCESS:   11344678	FORWARD:          0	MERGED:    2510990	TO_CACHE:    8833688

DTLB TOTAL     ACCESS:   14204776  HIT:   14077928  MISS:     126848  HIT %:     99.107  MISS %:   0.892995   MPKI: 2.53696
DTLB LOAD TRANSLATION ACCESS:   14204776  HIT:   14077928  MISS:     126848  HIT %:     99.107  MISS %:   0.892995   MPKI: 2.53696
DTLB PREFETCH  REQUESTED:          0  ISSUED:          0  USEFUL:          0  USELESS:          0
DTLB USEFUL LOAD PREFETCHES:          0 PREFETCH ISSUED TO LOWER LEVEL:          0  ACCURACY: -nan
DTLB TIMELY PREFETCHES:          0 LATE PREFETCHES: 0 DROPPED PREFETCHES: 0
DTLB PREFETCHES SAME FILL-ORIGIN LEVEL: 0 DIFFERENT FILL-ORIGIN LEVEL: 0
DTLB AVERAGE MISS LATENCY: 79.3896 cycles
DTLB RQ	ACCESS:   22770563	FORWARD:          0	MERGED:    8525827	TO_CACHE:   14244736

STLB TOTAL     ACCESS:    4534811  HIT:    4460541  MISS:      74270  HIT %:    98.3622  MISS %:    1.63777   MPKI: 1.4854
STLB LOAD TRANSLATION ACCESS:     126848  HIT:      52609  MISS:      74239  HIT %:     41.474  MISS %:     58.526   MPKI: 1.48478
STLB TRANSLATION FROM L1D PREFETCHER ACCESS:    4407963  HIT:    4407932  MISS:         31  HIT %:    99.9993  MISS %: 0.000703273   MPKI: 0.00062
STLB PREFETCH  REQUESTED:          0  ISSUED:          0  USEFUL:         22  USELESS:          9
STLB USEFUL LOAD PREFETCHES:         22 PREFETCH ISSUED TO LOWER LEVEL:          0  ACCURACY: inf
STLB TIMELY PREFETCHES:         22 LATE PREFETCHES: 0 DROPPED PREFETCHES: 0
STLB PREFETCHES SAME FILL-ORIGIN LEVEL: 0 DIFFERENT FILL-ORIGIN LEVEL: 0
STLB AVERAGE MISS LATENCY: 120.337 cycles
STLB RQ	ACCESS:    6831641	FORWARD:          0	MERGED:    2296830	TO_CACHE:    4534811

STLB Hit, L1D data hit: 0
STLB Hit, L2C data hit: 0
STLB Hit, LLC data hit: 0
STLB Hit, LLC data miss: 0
STLB STLB hints to L2: 0
L1D TOTAL     ACCESS:   27822551  HIT:   23568686  MISS:    4253865  HIT %:    84.7107  MISS %:    15.2893   MPKI: 85.0773
L1D LOAD      ACCESS:   10773182  HIT:    8737965  MISS:    2035217  HIT %:    81.1085  MISS %:    18.8915   MPKI: 40.7043
L1D RFO       ACCESS:   11230821  HIT:   11100141  MISS:     130680  HIT %:    98.8364  MISS %:    1.16358   MPKI: 2.6136
L1D PREFETCH  ACCESS:    5818548  HIT:    3730580  MISS:    2087968  HIT %:    64.1153  MISS %:    35.8847   MPKI: 41.7594
L1D PREFETCH  REQUESTED:   13416593  ISSUED:   13409588  USEFUL:     683671  USELESS:    1404294
L1D USEFUL LOAD PREFETCHES:     683671 PREFETCH ISSUED TO LOWER LEVEL:    2761137  ACCURACY: 24.7605
L1D TIMELY PREFETCHES:     683671 LATE PREFETCHES: 671476 DROPPED PREFETCHES: 0
L1D PREFETCHES SAME FILL-ORIGIN LEVEL: 2761137 DIFFERENT FILL-ORIGIN LEVEL: 0
L1D AVERAGE MISS LATENCY: 2.36551e+07 cycles
L1D RQ	ACCESS:   17025538	FORWARD:          0	MERGED:    5878778	TO_CACHE:   11137323
L1D WQ	ACCESS:   11892813	FORWARD:       9438	MERGED:     259573	TO_CACHE:   11633240
L1D PQ	ACCESS:    6704795	FORWARD:          0	MERGED:          1	TO_CACHE:    6704793

L1D UNIQUE REGIONS ACCESSED: 0
L1D REGIONS CONFLICTS: 0
L1D Cross Page Prefetch Requests: 0
L1D Same Page Prefetch Requests: 8046976
L1D ROI Sum of L1D PQ occupancy: 158965541
L1D PREFETCHES PUSHED FROM L2C: 0
L1I TOTAL     ACCESS:   11344676  HIT:   11344676  MISS:          0  HIT %:        100  MISS %:          0   MPKI: 0
L1I LOAD      ACCESS:   11344676  HIT:   11344676  MISS:          0  HIT %:        100  MISS %:          0   MPKI: 0
L1I PREFETCH  REQUESTED:          0  ISSUED:          0  USEFUL:          0  USELESS:          0
L1I USEFUL LOAD PREFETCHES:          0 PREFETCH ISSUED TO LOWER LEVEL:          0  ACCURACY: -nan
L1I TIMELY PREFETCHES:          0 LATE PREFETCHES: 0 DROPPED PREFETCHES: 0
L1I PREFETCHES SAME FILL-ORIGIN LEVEL: 0 DIFFERENT FILL-ORIGIN LEVEL: 0
L1I AVERAGE MISS LATENCY: -nan cycles
L1I RQ	ACCESS:   15424303	FORWARD:          0	MERGED:    4079625	TO_CACHE:   11344678

BTB TOTAL     ACCESS:    5821401  HIT:    5821367  MISS:         34  HIT %:    99.9994  MISS %: 0.000584052   MPKI: 0.00068
BTB BRANCH_DIRECT_JUMP	ACCESS:     638582  HIT:     638576  MISS:          6
BTB BRANCH_INDIRECT	ACCESS:          0  HIT:          0  MISS:          0
BTB BRANCH_CONDITIONAL	ACCESS:    5182671  HIT:    5182647  MISS:         24
BTB BRANCH_DIRECT_CALL	ACCESS:         74  HIT:         72  MISS:          2
BTB BRANCH_INDIRECT_CALL	ACCESS:          0  HIT:          0  MISS:          0
BTB BRANCH_RETURN	ACCESS:         74  HIT:         72  MISS:          2
BTB BRANCH_OTHER ACCESS:          0  HIT:          0  MISS:          0

L2C TOTAL     ACCESS:    5208830  HIT:    1193327  MISS:    4015503  HIT %:    22.9097  MISS %:    77.0903   MPKI: 80.3101
L2C LOAD      ACCESS:    1363728  HIT:      61264  MISS:    1302464  HIT %:    4.49239  MISS %:    95.5076   MPKI: 26.0493
L2C DATA LOAD MPKI: 26.0493
L2C INSTRUCTION LOAD MPKI: 0
L2C RFO       ACCESS:     128985  HIT:       5299  MISS:     123686  HIT %:    4.10823  MISS %:    95.8918   MPKI: 2.47372
L2C PREFETCH  ACCESS:    3332079  HIT:     754845  MISS:    2577234  HIT %:    22.6539  MISS %:    77.3461   MPKI: 51.5447
L2C DATA PREFETCH MPKI: 51.5447
L2C INSTRUCTION PREFETCH MPKI: 0
L2C WRITEBACK ACCESS:     309724  HIT:     308220  MISS:       1504  HIT %:    99.5144  MISS %:   0.485594   MPKI: 0.03008
L2C LOAD TRANSLATION ACCESS:      74283  HIT:      63699  MISS:      10584  HIT %:    85.7518  MISS %:    14.2482   MPKI: 0.21168
L2C TRANSLATION FROM L1D PREFETCHER ACCESS:         31  HIT:          0  MISS:         31  HIT %:          0  MISS %:        100   MPKI: 0.00062
L2C PREFETCH  REQUESTED:     852440  ISSUED:     852440  USEFUL:      17695  USELESS:    2559451
L2C USEFUL LOAD PREFETCHES:      17695 PREFETCH ISSUED TO LOWER LEVEL:    2577856  ACCURACY: 0.686423
L2C TIMELY PREFETCHES:      17695 LATE PREFETCHES: 622 DROPPED PREFETCHES: 0
L2C PREFETCHES SAME FILL-ORIGIN LEVEL: 349570 DIFFERENT FILL-ORIGIN LEVEL: 0
L2C AVERAGE MISS LATENCY: 625.73 cycles
L2C RQ	ACCESS:    1567042	FORWARD:          0	MERGED:          0	TO_CACHE:    1567027
L2C WQ	ACCESS:     309724	FORWARD:         29	MERGED:          0	TO_CACHE:     309724
L2C PQ	ACCESS:    3613577	FORWARD:          0	MERGED:      26104	TO_CACHE:    3587459

L2C Instructions Evicting Data 0
L2C Translations Evicting Data 10605
L2C Data Evicting Data 3992849
L2C Instructions Evicting Instructions 0
L2C Translations Evicting Instructions 0
L2C Data Evicting Instructions 0
L2C Instructions Evicting Translations 0
L2C Translations Evicting Translations 10
L2C Data Evicting Translations 10535
L2C Dense regions hint from L2: 0
PSCL5 TOTAL     ACCESS:      74270  HIT:      74270  MISS:          0  HIT %:        100  MISS %:          0   MPKI: 0
PSCL5 LOAD TRANSLATION ACCESS:      74239  HIT:      74239  MISS:          0  HIT %:        100  MISS %:          0   MPKI: 0
PSCL5 TRANSLATION FROM L1D PREFETCHER ACCESS:         31  HIT:         31  MISS:          0  HIT %:        100  MISS %:          0   MPKI: 0
PSCL5 PREFETCH  REQUESTED:          0  ISSUED:          0  USEFUL:          0  USELESS:          0
PSCL5 USEFUL LOAD PREFETCHES:          0 PREFETCH ISSUED TO LOWER LEVEL:          0  ACCURACY: -nan
PSCL5 TIMELY PREFETCHES:          0 LATE PREFETCHES: 0 DROPPED PREFETCHES: 0
PSCL5 PREFETCHES SAME FILL-ORIGIN LEVEL: 0 DIFFERENT FILL-ORIGIN LEVEL: 0

PSCL4 TOTAL     ACCESS:      74270  HIT:      74270  MISS:          0  HIT %:        100  MISS %:          0   MPKI: 0
PSCL4 LOAD TRANSLATION ACCESS:      74239  HIT:      74239  MISS:          0  HIT %:        100  MISS %:          0   MPKI: 0
PSCL4 TRANSLATION FROM L1D PREFETCHER ACCESS:         31  HIT:         31  MISS:          0  HIT %:        100  MISS %:          0   MPKI: 0
PSCL4 PREFETCH  REQUESTED:          0  ISSUED:          0  USEFUL:          0  USELESS:          0
PSCL4 USEFUL LOAD PREFETCHES:          0 PREFETCH ISSUED TO LOWER LEVEL:          0  ACCURACY: -nan
PSCL4 TIMELY PREFETCHES:          0 LATE PREFETCHES: 0 DROPPED PREFETCHES: 0
PSCL4 PREFETCHES SAME FILL-ORIGIN LEVEL: 0 DIFFERENT FILL-ORIGIN LEVEL: 0

PSCL3 TOTAL     ACCESS:      74270  HIT:      74270  MISS:          0  HIT %:        100  MISS %:          0   MPKI: 0
PSCL3 LOAD TRANSLATION ACCESS:      74239  HIT:      74239  MISS:          0  HIT %:        100  MISS %:          0   MPKI: 0
PSCL3 TRANSLATION FROM L1D PREFETCHER ACCESS:         31  HIT:         31  MISS:          0  HIT %:        100  MISS %:          0   MPKI: 0
PSCL3 PREFETCH  REQUESTED:          0  ISSUED:          0  USEFUL:          0  USELESS:          0
PSCL3 USEFUL LOAD PREFETCHES:          0 PREFETCH ISSUED TO LOWER LEVEL:          0  ACCURACY: -nan
PSCL3 TIMELY PREFETCHES:          0 LATE PREFETCHES: 0 DROPPED PREFETCHES: 0
PSCL3 PREFETCHES SAME FILL-ORIGIN LEVEL: 0 DIFFERENT FILL-ORIGIN LEVEL: 0

PSCL2 TOTAL     ACCESS:      74270  HIT:      74194  MISS:         76  HIT %:    99.8977  MISS %:   0.102329   MPKI: 0.00152
PSCL2 LOAD TRANSLATION ACCESS:      74239  HIT:      74163  MISS:         76  HIT %:    99.8976  MISS %:   0.102372   MPKI: 0.00152
PSCL2 TRANSLATION FROM L1D PREFETCHER ACCESS:         31  HIT:         31  MISS:          0  HIT %:        100  MISS %:          0   MPKI: 0
PSCL2 PREFETCH  REQUESTED:          0  ISSUED:          0  USEFUL:          0  USELESS:          0
PSCL2 USEFUL LOAD PREFETCHES:          0 PREFETCH ISSUED TO LOWER LEVEL:          0  ACCURACY: -nan
PSCL2 TIMELY PREFETCHES:          0 LATE PREFETCHES: 0 DROPPED PREFETCHES: 0
PSCL2 PREFETCHES SAME FILL-ORIGIN LEVEL: 0 DIFFERENT FILL-ORIGIN LEVEL: 0

LLC TOTAL     ACCESS:    4273352  HIT:     276799  MISS:    3996553  HIT %:    6.47733  MISS %:    93.5227   MPKI: 79.9311
LLC LOAD      ACCESS:    1301842  HIT:       2682  MISS:    1299160  HIT %:   0.206016  MISS %:     99.794   MPKI: 25.9832
LLC RFO       ACCESS:     123686  HIT:        144  MISS:     123542  HIT %:   0.116424  MISS %:    99.8836   MPKI: 2.47084
LLC PREFETCH  ACCESS:    2577856  HIT:      16117  MISS:    2561739  HIT %:   0.625209  MISS %:    99.3748   MPKI: 51.2348
LLC WRITEBACK ACCESS:     259353  HIT:     257489  MISS:       1864  HIT %:    99.2813  MISS %:   0.718712   MPKI: 0.03728
LLC LOAD TRANSLATION ACCESS:      10584  HIT:        367  MISS:      10217  HIT %:     3.4675  MISS %:    96.5325   MPKI: 0.20434
LLC TRANSLATION FROM L1D PREFETCHER ACCESS:         31  HIT:          0  MISS:         31  HIT %:          0  MISS %:        100   MPKI: 0.00062
LLC PREFETCH  REQUESTED:          0  ISSUED:          0  USEFUL:       1506  USELESS:    2563426
LLC USEFUL LOAD PREFETCHES:       1506 PREFETCH ISSUED TO LOWER LEVEL:    2561739  ACCURACY: 0.0587882
LLC TIMELY PREFETCHES:       1506 LATE PREFETCHES: 0 DROPPED PREFETCHES: 0
LLC PREFETCHES SAME FILL-ORIGIN LEVEL: 0 DIFFERENT FILL-ORIGIN LEVEL: 0
LLC AVERAGE MISS LATENCY: 598.564 cycles
LLC RQ	ACCESS:    1436143	FORWARD:          0	MERGED:          0	TO_CACHE:    1436143
LLC WQ	ACCESS:     259353	FORWARD:          0	MERGED:          0	TO_CACHE:     259353
LLC PQ	ACCESS:    2577856	FORWARD:          0	MERGED:          0	TO_CACHE:    2577856

LLC Dense regions hint to LLC: 0

RAW hits: 727387
Loads Generated: 17752925
Loads sent to L1D: 17025538
Stores Generated: 11892805
Stores sent to L1D: 11892813
Major fault: 0 Minor fault: 13946
Allocated PAGES: 13946

stream: 
stream:times selected: 8200134
stream:pref_filled: 1361203
stream:pref_useful: 147159
stream:pref_late: 231358
stream:misses: 212779
stream:misses_by_poll: 0

CS: 
CS:times selected: 575021
CS:pref_filled: 389900
CS:pref_useful: 387975
CS:pref_late: 8330
CS:misses: 15563
CS:misses_by_poll: 331

CPLX: 
CPLX:times selected: 7587723
CPLX:pref_filled: 646280
CPLX:pref_useful: 274302
CPLX:pref_late: 495552
CPLX:misses: 2278531
CPLX:misses_by_poll: 3472

NL_L1: 
NL:times selected: 41003
NL:pref_filled: 7031
NL:pref_useful: 3167
NL:pref_late: 1499
NL:misses: 20424
NL:misses_by_poll: 7

total selections: 16403881
total_filled: 2087968
total_useful: 683671
total_late: 740157
total_polluted: 3810
total_misses_after_warmup: 2399356
conflicts: 23672
Degree Incremented Times: 52058
Degree Decremented Times: 99251

L1 IP Table Write Accesses: 11011831
L1 IP Table Read Accesses: 10988159
L1 RST Write Accesses: 6922625
L1 RST Read Accesses: 13845250
L1 CSPT Write Accesses: 6922625
L1 CSPT Read Accesses: 13288119
L1 RR Filter Tag Write Accesses: 6711800
L1 RR Filter Tag Read Accesses: 329279314
L1 IP Table Tag Write Accesses: 11137321
L1 IP Table Tag Read Accesses: 11137321
L1 RST Tag Write Accesses: 0
L1 RST Tag Read Accesses: 65604828
L1 RR Filter Write Accesses: 0
L1 RR Filter Read Accesses: 11423318
test: 3232149
L2 IP Table Read Accesses: 8008445
L2 IP Table Write Accesses: 6689716
L2 IP Table Tag Read Accesses: 4027810
L2 IP Table Tag Write Accesses: 4027810

DRAM Statistics
 CHANNEL 0
 RQ ROW_BUFFER_HIT:    2694166  ROW_BUFFER_MISS:    1300473
 DBUS_CONGESTED:    3868842
 WQ ROW_BUFFER_HIT:      56984  ROW_BUFFER_MISS:     200211  FULL:          0

 AVG_CONGESTED_CYCLE: 53
 All warmup complete: 2
Channel 0 Bank busy for read cycles: 0
Channel 0 Bank busy for write cycles: 0
Channel 0
Rank 0
0banks busy for read cycles: 36946492
0banks busy for write cycles: 10043
1banks busy for read cycles: 30158086
1banks busy for write cycles: 1971337
2banks busy for read cycles: 21840468
2banks busy for write cycles: 1144846
3banks busy for read cycles: 17365804
3banks busy for write cycles: 836731
4banks busy for read cycles: 16416828
4banks busy for write cycles: 642087
5banks busy for read cycles: 20076375
5banks busy for write cycles: 527672
6banks busy for read cycles: 28124462
6banks busy for write cycles: 518839
7banks busy for read cycles: 45873214
7banks busy for write cycles: 1128226
8banks busy for read cycles: 65929234
8banks busy for write cycles: 16329525

CPU 0 Branch Prediction Accuracy: 98.3401% MPKI: 1.96794 Average ROB Occupancy at Mispredict: 176.292
Branch types
NOT_BRANCH: 44071945 88.1439%
BRANCH_DIRECT_JUMP: 638582 1.27716%
BRANCH_INDIRECT: 0 0%
BRANCH_CONDITIONAL: 5289321 10.5786%
BRANCH_DIRECT_CALL: 74 0.000148%
BRANCH_INDIRECT_CALL: 0 0%
BRANCH_RETURN: 74 0.000148%
BRANCH_OTHER: 0 0%

@sumon_overall_L1D    683671    671476   1404294   2087968  13409588  13416593
@Sumon_Early_by_class_L1D    114730    350141    216723      1410
@Sumon_Late_by_class_L1D    217377      8093    443432      1410

@Sumon_Early_by_cycle_L1D     65783     76828     81963     46043     32492    237071     70708     24799     21116     16395      8153      2320
@Sumon_Late_by_cycle_L1D     86335     86890    187198    144231     95687     70554       580         1         0         0         0         0
@Sumon_Early_stream_L1D     27639     30554     22448      8015      3431      8522      3587      3040      2918      2965       971       640
@Sumon_Early_CS_L1D     18496      7699     13141     10798     16202    201926     56948     14334     10218       379         0         0
@Sumon_Early_CPLX_L1D     19435     38088     45861     26869     12670     26441     10158      7392      7938     13021      7175      1675
@Sumon_Late_stream_L1D     49298     32790     52604     34982     27708     19906        89         0         0         0         0         0
@Sumon_Late_CS_L1D      3357      2066      1173       651       323       516         7         0         0         0         0         0
@Sumon_Late_CPLX_L1D     31827     51719    133138    108521     67635     50107       484         1         0         0         0         0
@sumon_overall_L2C     17695       622   2559451   2577265    852440    852440
@Sumon_Early_by_class_L2C      2916      2909      9894         0
@Sumon_Late_by_class_L2C         0       531         0         0

@Sumon_Early_by_cycle_L2C        64       130       242       167       163      1369       737       155       267       872      3106     10423
@Sumon_Late_by_cycle_L2C        75        60       147       122       109        99        10         0         0         0         0         0
@Sumon_Early_stream_L2C         0         0         0         0         0         0         0         0         0       137       899      1880
@Sumon_Early_CS_L2C        64       130       242       166       163      1321       678        30        25        13        75         2
@Sumon_Early_CPLX_L2C         0         0         0         0         0         1         0         1         6       272      1846      7768
@Sumon_Late_stream_L2C         0         0         0         0         0         0         0         0         0         0         0         0
@Sumon_Late_CS_L2C        64        60       136       108        82        71        10         0         0         0         0         0
@Sumon_Late_CPLX_L2C         0         0         0         0         0         0         0         0         0         0         0         0
DRAM PAGES: 1048576
Allocated PAGES: 13946
