
*** ChampSim Multicore Out-of-Order Simulator ***

Warmup Instructions: 10000000
Simulation Instructions: 50000000
Number of CPUs: 1
LLC sets: 2048
LLC ways: 16
Off-chip DRAM Size: 4096 MB Channels: 1 Width: 64-bit Data Rate: 533 MT/s
CPU 0 runs traces/SPEC2017/605.mcf_s-484B.champsimtrace.xz
.xz
CPU 0 Bimodal branch predictor
BTB has LRU replacement policy
ITLB has LRU replacement policy
DTLB has LRU replacement policy
STLB has LRU replacement policy
L1I has LRU replacement policy
IP Table Entries: 256
L1D has LRU replacement policy
IP_Table L2 entries: 256
L2C has LRU replacement policy
LLC has LRU replacement policy
Heartbeat CPU 0 instructions: 10000001 cycles: 3165151 heartbeat IPC: 3.15941 cumulative IPC: 3.15941 (Simulation time: 0 hr 27 min 7 sec) 

Warmup complete CPU 0 instructions: 10000001 cycles: 3165151 (Simulation time: 0 hr 27 min 7 sec) 

Heartbeat CPU 0 instructions: 20000000 cycles: 41835673 heartbeat IPC: 0.258595 cumulative IPC: 0.258595 (Simulation time: 1 hr 5 min 1 sec) 
Heartbeat CPU 0 instructions: 30000000 cycles: 80573384 heartbeat IPC: 0.258146 cumulative IPC: 0.25837 (Simulation time: 1 hr 43 min 33 sec) 
Heartbeat CPU 0 instructions: 40000000 cycles: 111622400 heartbeat IPC: 0.322071 cumulative IPC: 0.276607 (Simulation time: 2 hr 9 min 19 sec) 
Heartbeat CPU 0 instructions: 50000000 cycles: 148740010 heartbeat IPC: 0.269414 cumulative IPC: 0.274773 (Simulation time: 2 hr 26 min 31 sec) 
Heartbeat CPU 0 instructions: 60000003 cycles: 184006903 heartbeat IPC: 0.283552 cumulative IPC: 0.276485 (Simulation time: 2 hr 46 min 37 sec) 
Finished CPU 0 instructions: 50000002 cycles: 180841752 cumulative IPC: 0.276485 (Simulation time: 2 hr 46 min 37 sec) 

ChampSim completed all CPUs

Region of Interest Statistics

CPU 0 cumulative IPC: 0.276485 instructions: 50000002 cycles: 180841752
ITLB TOTAL     ACCESS:    8216561  HIT:    8216561  MISS:          0  HIT %:        100  MISS %:          0   MPKI: 0
ITLB LOAD TRANSLATION ACCESS:    8216561  HIT:    8216561  MISS:          0  HIT %:        100  MISS %:          0   MPKI: 0
ITLB PREFETCH  REQUESTED:          0  ISSUED:          0  USEFUL:          0  USELESS:          0
ITLB USEFUL LOAD PREFETCHES:          0 PREFETCH ISSUED TO LOWER LEVEL:          0  ACCURACY: -nan
ITLB TIMELY PREFETCHES:          0 LATE PREFETCHES: 0 DROPPED PREFETCHES: 0
ITLB PREFETCHES SAME FILL-ORIGIN LEVEL: 0 DIFFERENT FILL-ORIGIN LEVEL: 0
ITLB AVERAGE MISS LATENCY: -nan cycles
ITLB RQ	ACCESS:   10698621	FORWARD:          0	MERGED:    2482061	TO_CACHE:    8216560

DTLB TOTAL     ACCESS:   13249049  HIT:   13142095  MISS:     106954  HIT %:    99.1927  MISS %:   0.807258   MPKI: 2.13908
DTLB LOAD TRANSLATION ACCESS:   13249049  HIT:   13142095  MISS:     106954  HIT %:    99.1927  MISS %:   0.807258   MPKI: 2.13908
DTLB PREFETCH  REQUESTED:          0  ISSUED:          0  USEFUL:          0  USELESS:          0
DTLB USEFUL LOAD PREFETCHES:          0 PREFETCH ISSUED TO LOWER LEVEL:          0  ACCURACY: -nan
DTLB TIMELY PREFETCHES:          0 LATE PREFETCHES: 0 DROPPED PREFETCHES: 0
DTLB PREFETCHES SAME FILL-ORIGIN LEVEL: 0 DIFFERENT FILL-ORIGIN LEVEL: 0
DTLB AVERAGE MISS LATENCY: 47.687 cycles
DTLB RQ	ACCESS:   23541038	FORWARD:          0	MERGED:   10279496	TO_CACHE:   13261542

STLB TOTAL     ACCESS:    3981742  HIT:    3947294  MISS:      34448  HIT %:    99.1349  MISS %:   0.865149   MPKI: 0.68896
STLB LOAD TRANSLATION ACCESS:     106954  HIT:      72514  MISS:      34440  HIT %:    67.7992  MISS %:    32.2008   MPKI: 0.6888
STLB TRANSLATION FROM L1D PREFETCHER ACCESS:    3874788  HIT:    3874780  MISS:          8  HIT %:    99.9998  MISS %: 0.000206463   MPKI: 0.00016
STLB PREFETCH  REQUESTED:          0  ISSUED:          0  USEFUL:          4  USELESS:          4
STLB USEFUL LOAD PREFETCHES:          4 PREFETCH ISSUED TO LOWER LEVEL:          0  ACCURACY: inf
STLB TIMELY PREFETCHES:          4 LATE PREFETCHES: 0 DROPPED PREFETCHES: 0
STLB PREFETCHES SAME FILL-ORIGIN LEVEL: 0 DIFFERENT FILL-ORIGIN LEVEL: 0
STLB AVERAGE MISS LATENCY: 120.152 cycles
STLB RQ	ACCESS:    6335396	FORWARD:          0	MERGED:    2353654	TO_CACHE:    3981742

STLB Hit, L1D data hit: 0
STLB Hit, L2C data hit: 0
STLB Hit, LLC data hit: 0
STLB Hit, LLC data miss: 0
STLB STLB hints to L2: 0
L1D TOTAL     ACCESS:   29039248  HIT:   27109593  MISS:    1929655  HIT %:     93.355  MISS %:    6.64499   MPKI: 38.5931
L1D LOAD      ACCESS:    8991994  HIT:    8180310  MISS:     811684  HIT %:    90.9733  MISS %:    9.02674   MPKI: 16.2337
L1D RFO       ACCESS:   14111795  HIT:   14009685  MISS:     102110  HIT %:    99.2764  MISS %:   0.723579   MPKI: 2.0422
L1D PREFETCH  ACCESS:    5935459  HIT:    4919598  MISS:    1015861  HIT %:    82.8849  MISS %:    17.1151   MPKI: 20.3172
L1D PREFETCH  REQUESTED:   12457082  ISSUED:   12456889  USEFUL:     317629  USELESS:     698361
L1D USEFUL LOAD PREFETCHES:     317629 PREFETCH ISSUED TO LOWER LEVEL:    1238940  ACCURACY: 25.6372
L1D TIMELY PREFETCHES:     317629 LATE PREFETCHES: 220799 DROPPED PREFETCHES: 0
L1D PREFETCHES SAME FILL-ORIGIN LEVEL: 1238940 DIFFERENT FILL-ORIGIN LEVEL: 0
L1D AVERAGE MISS LATENCY: 1.04356e+07 cycles
L1D RQ	ACCESS:   15557948	FORWARD:          0	MERGED:    6461588	TO_CACHE:    9092293
L1D WQ	ACCESS:   14570723	FORWARD:       4072	MERGED:     121978	TO_CACHE:   14448745
L1D PQ	ACCESS:    6228447	FORWARD:          0	MERGED:          0	TO_CACHE:    6228442

L1D UNIQUE REGIONS ACCESSED: 0
L1D REGIONS CONFLICTS: 0
L1D Cross Page Prefetch Requests: 0
L1D Same Page Prefetch Requests: 7426092
L1D ROI Sum of L1D PQ occupancy: 93106843
L1D PREFETCHES PUSHED FROM L2C: 0
L1I TOTAL     ACCESS:   10698620  HIT:   10698620  MISS:          0  HIT %:        100  MISS %:          0   MPKI: 0
L1I LOAD      ACCESS:   10698620  HIT:   10698620  MISS:          0  HIT %:        100  MISS %:          0   MPKI: 0
L1I PREFETCH  REQUESTED:          0  ISSUED:          0  USEFUL:          0  USELESS:          0
L1I USEFUL LOAD PREFETCHES:          0 PREFETCH ISSUED TO LOWER LEVEL:          0  ACCURACY: -nan
L1I TIMELY PREFETCHES:          0 LATE PREFETCHES: 0 DROPPED PREFETCHES: 0
L1I PREFETCHES SAME FILL-ORIGIN LEVEL: 0 DIFFERENT FILL-ORIGIN LEVEL: 0
L1I AVERAGE MISS LATENCY: -nan cycles
L1I RQ	ACCESS:   14518710	FORWARD:          0	MERGED:    3820089	TO_CACHE:   10698621

BTB TOTAL     ACCESS:    4772229  HIT:    4772195  MISS:         34  HIT %:    99.9993  MISS %: 0.000712455   MPKI: 0.00068
BTB BRANCH_DIRECT_JUMP	ACCESS:     215829  HIT:     215823  MISS:          6
BTB BRANCH_INDIRECT	ACCESS:          0  HIT:          0  MISS:          0
BTB BRANCH_CONDITIONAL	ACCESS:    4556360  HIT:    4556336  MISS:         24
BTB BRANCH_DIRECT_CALL	ACCESS:         20  HIT:         18  MISS:          2
BTB BRANCH_INDIRECT_CALL	ACCESS:          0  HIT:          0  MISS:          0
BTB BRANCH_RETURN	ACCESS:         20  HIT:         18  MISS:          2
BTB BRANCH_OTHER ACCESS:          0  HIT:          0  MISS:          0

L2C TOTAL     ACCESS:    2551627  HIT:     860768  MISS:    1690859  HIT %:    33.7341  MISS %:    66.2659   MPKI: 33.8172
L2C LOAD      ACCESS:     590874  HIT:      41970  MISS:     548904  HIT %:    7.10304  MISS %:     92.897   MPKI: 10.9781
L2C DATA LOAD MPKI: 10.9781
L2C INSTRUCTION LOAD MPKI: 0
L2C RFO       ACCESS:      99834  HIT:       1920  MISS:      97914  HIT %:    1.92319  MISS %:    98.0768   MPKI: 1.95828
L2C PREFETCH  ACCESS:    1499011  HIT:     461092  MISS:    1037919  HIT %:    30.7597  MISS %:    69.2403   MPKI: 20.7584
L2C DATA PREFETCH MPKI: 20.7584
L2C INSTRUCTION PREFETCH MPKI: 0
L2C WRITEBACK ACCESS:     327377  HIT:     326336  MISS:       1041  HIT %:     99.682  MISS %:   0.317982   MPKI: 0.02082
L2C LOAD TRANSLATION ACCESS:      34523  HIT:      29449  MISS:       5074  HIT %:    85.3026  MISS %:    14.6974   MPKI: 0.10148
L2C TRANSLATION FROM L1D PREFETCHER ACCESS:          8  HIT:          1  MISS:          7  HIT %:       12.5  MISS %:       87.5   MPKI: 0.00014
L2C PREFETCH  REQUESTED:     344777  ISSUED:     344777  USEFUL:      18973  USELESS:    1018463
L2C USEFUL LOAD PREFETCHES:      18973 PREFETCH ISSUED TO LOWER LEVEL:    1038078  ACCURACY: 1.8277
L2C TIMELY PREFETCHES:      18973 LATE PREFETCHES: 154 DROPPED PREFETCHES: 0
L2C PREFETCHES SAME FILL-ORIGIN LEVEL: 129202 DIFFERENT FILL-ORIGIN LEVEL: 0
L2C AVERAGE MISS LATENCY: 496.414 cycles
L2C RQ	ACCESS:     725253	FORWARD:          0	MERGED:          0	TO_CACHE:     725241
L2C WQ	ACCESS:     327377	FORWARD:         27	MERGED:          0	TO_CACHE:     327377
L2C PQ	ACCESS:    1583717	FORWARD:          0	MERGED:      14383	TO_CACHE:    1569319

L2C Instructions Evicting Data 0
L2C Translations Evicting Data 5075
L2C Data Evicting Data 1679664
L2C Instructions Evicting Instructions 0
L2C Translations Evicting Instructions 0
L2C Data Evicting Instructions 0
L2C Instructions Evicting Translations 0
L2C Translations Evicting Translations 6
L2C Data Evicting Translations 5073
L2C Dense regions hint from L2: 0
PSCL5 TOTAL     ACCESS:      34448  HIT:      34448  MISS:          0  HIT %:        100  MISS %:          0   MPKI: 0
PSCL5 LOAD TRANSLATION ACCESS:      34440  HIT:      34440  MISS:          0  HIT %:        100  MISS %:          0   MPKI: 0
PSCL5 TRANSLATION FROM L1D PREFETCHER ACCESS:          8  HIT:          8  MISS:          0  HIT %:        100  MISS %:          0   MPKI: 0
PSCL5 PREFETCH  REQUESTED:          0  ISSUED:          0  USEFUL:          0  USELESS:          0
PSCL5 USEFUL LOAD PREFETCHES:          0 PREFETCH ISSUED TO LOWER LEVEL:          0  ACCURACY: -nan
PSCL5 TIMELY PREFETCHES:          0 LATE PREFETCHES: 0 DROPPED PREFETCHES: 0
PSCL5 PREFETCHES SAME FILL-ORIGIN LEVEL: 0 DIFFERENT FILL-ORIGIN LEVEL: 0

PSCL4 TOTAL     ACCESS:      34448  HIT:      34448  MISS:          0  HIT %:        100  MISS %:          0   MPKI: 0
PSCL4 LOAD TRANSLATION ACCESS:      34440  HIT:      34440  MISS:          0  HIT %:        100  MISS %:          0   MPKI: 0
PSCL4 TRANSLATION FROM L1D PREFETCHER ACCESS:          8  HIT:          8  MISS:          0  HIT %:        100  MISS %:          0   MPKI: 0
PSCL4 PREFETCH  REQUESTED:          0  ISSUED:          0  USEFUL:          0  USELESS:          0
PSCL4 USEFUL LOAD PREFETCHES:          0 PREFETCH ISSUED TO LOWER LEVEL:          0  ACCURACY: -nan
PSCL4 TIMELY PREFETCHES:          0 LATE PREFETCHES: 0 DROPPED PREFETCHES: 0
PSCL4 PREFETCHES SAME FILL-ORIGIN LEVEL: 0 DIFFERENT FILL-ORIGIN LEVEL: 0

PSCL3 TOTAL     ACCESS:      34448  HIT:      34448  MISS:          0  HIT %:        100  MISS %:          0   MPKI: 0
PSCL3 LOAD TRANSLATION ACCESS:      34440  HIT:      34440  MISS:          0  HIT %:        100  MISS %:          0   MPKI: 0
PSCL3 TRANSLATION FROM L1D PREFETCHER ACCESS:          8  HIT:          8  MISS:          0  HIT %:        100  MISS %:          0   MPKI: 0
PSCL3 PREFETCH  REQUESTED:          0  ISSUED:          0  USEFUL:          0  USELESS:          0
PSCL3 USEFUL LOAD PREFETCHES:          0 PREFETCH ISSUED TO LOWER LEVEL:          0  ACCURACY: -nan
PSCL3 TIMELY PREFETCHES:          0 LATE PREFETCHES: 0 DROPPED PREFETCHES: 0
PSCL3 PREFETCHES SAME FILL-ORIGIN LEVEL: 0 DIFFERENT FILL-ORIGIN LEVEL: 0

PSCL2 TOTAL     ACCESS:      34448  HIT:      34334  MISS:        114  HIT %:    99.6691  MISS %:   0.330934   MPKI: 0.00228
PSCL2 LOAD TRANSLATION ACCESS:      34440  HIT:      34326  MISS:        114  HIT %:     99.669  MISS %:    0.33101   MPKI: 0.00228
PSCL2 TRANSLATION FROM L1D PREFETCHER ACCESS:          8  HIT:          8  MISS:          0  HIT %:        100  MISS %:          0   MPKI: 0
PSCL2 PREFETCH  REQUESTED:          0  ISSUED:          0  USEFUL:          0  USELESS:          0
PSCL2 USEFUL LOAD PREFETCHES:          0 PREFETCH ISSUED TO LOWER LEVEL:          0  ACCURACY: -nan
PSCL2 TIMELY PREFETCHES:          0 LATE PREFETCHES: 0 DROPPED PREFETCHES: 0
PSCL2 PREFETCHES SAME FILL-ORIGIN LEVEL: 0 DIFFERENT FILL-ORIGIN LEVEL: 0

LLC TOTAL     ACCESS:    1988218  HIT:     316749  MISS:    1671469  HIT %:    15.9313  MISS %:    84.0687   MPKI: 33.4294
LLC LOAD      ACCESS:     548750  HIT:       2089  MISS:     546661  HIT %:   0.380683  MISS %:    99.6193   MPKI: 10.9332
LLC RFO       ACCESS:      97914  HIT:         53  MISS:      97861  HIT %:  0.0541291  MISS %:    99.9459   MPKI: 1.95722
LLC PREFETCH  ACCESS:    1038073  HIT:      17228  MISS:    1020845  HIT %:    1.65961  MISS %:    98.3404   MPKI: 20.4169
LLC WRITEBACK ACCESS:     298400  HIT:     297123  MISS:       1277  HIT %:    99.5721  MISS %:   0.427949   MPKI: 0.02554
LLC LOAD TRANSLATION ACCESS:       5074  HIT:        256  MISS:       4818  HIT %:    5.04533  MISS %:    94.9547   MPKI: 0.09636
LLC TRANSLATION FROM L1D PREFETCHER ACCESS:          7  HIT:          0  MISS:          7  HIT %:          0  MISS %:        100   MPKI: 0.00014
LLC PREFETCH  REQUESTED:          0  ISSUED:          0  USEFUL:       1384  USELESS:    1016372
LLC USEFUL LOAD PREFETCHES:       1384 PREFETCH ISSUED TO LOWER LEVEL:    1020850  ACCURACY: 0.135573
LLC TIMELY PREFETCHES:       1384 LATE PREFETCHES: 0 DROPPED PREFETCHES: 0
LLC PREFETCHES SAME FILL-ORIGIN LEVEL: 0 DIFFERENT FILL-ORIGIN LEVEL: 0
LLC AVERAGE MISS LATENCY: 471.68 cycles
LLC RQ	ACCESS:     651747	FORWARD:          0	MERGED:          0	TO_CACHE:     651747
LLC WQ	ACCESS:     298400	FORWARD:          0	MERGED:          0	TO_CACHE:     298400
LLC PQ	ACCESS:    1038078	FORWARD:          0	MERGED:          0	TO_CACHE:    1038078

LLC Dense regions hint to LLC: 0

RAW hits: 263630
Loads Generated: 15821578
Loads sent to L1D: 15557948
Stores Generated: 14570749
Stores sent to L1D: 14570723
Major fault: 0 Minor fault: 18248
Allocated PAGES: 18248

stream: 
stream:times selected: 7002725
stream:pref_filled: 544909
stream:pref_useful: 96578
stream:pref_late: 99286
stream:misses: 121607
stream:misses_by_poll: 0

CS: 
CS:times selected: 216472
CS:pref_filled: 133913
CS:pref_useful: 132942
CS:pref_late: 1883
CS:misses: 2628
CS:misses_by_poll: 167

CPLX: 
CPLX:times selected: 6727080
CPLX:pref_filled: 509600
CPLX:pref_useful: 147928
CPLX:pref_late: 137040
CPLX:misses: 808755
CPLX:misses_by_poll: 3743

NL_L1: 
NL:times selected: 75809
NL:pref_filled: 6615
NL:pref_useful: 2766
NL:pref_late: 2160
NL:misses: 17204
NL:misses_by_poll: 1

total selections: 14022086
total_filled: 1015861
total_useful: 317629
total_late: 241147
total_polluted: 3911
total_misses_after_warmup: 911984
conflicts: 19079
Degree Incremented Times: 44404
Degree Decremented Times: 122620

L1 IP Table Write Accesses: 9012246
L1 IP Table Read Accesses: 8993167
L1 RST Write Accesses: 5815682
L1 RST Read Accesses: 11631364
L1 CSPT Write Accesses: 5815682
L1 CSPT Read Accesses: 11396908
L1 RR Filter Tag Write Accesses: 6228640
L1 RR Filter Tag Read Accesses: 280898563
L1 IP Table Tag Write Accesses: 9092294
L1 IP Table Tag Read Accesses: 9092294
L1 RST Tag Write Accesses: 0
L1 RST Tag Read Accesses: 57435655
L1 RR Filter Write Accesses: 0
L1 RR Filter Read Accesses: 9216237
test: 3969014
L2 IP Table Read Accesses: 3540571
L2 IP Table Write Accesses: 3005027
L2 IP Table Tag Read Accesses: 1797869
L2 IP Table Tag Write Accesses: 1797869

DRAM Statistics
 CHANNEL 0
 RQ ROW_BUFFER_HIT:     831363  ROW_BUFFER_MISS:     838811
 DBUS_CONGESTED:    1577477
 WQ ROW_BUFFER_HIT:      85214  ROW_BUFFER_MISS:     219275  FULL:          0

 AVG_CONGESTED_CYCLE: 50
 All warmup complete: 2
Channel 0 Bank busy for read cycles: 0
Channel 0 Bank busy for write cycles: 0
Channel 0
Rank 0
0banks busy for read cycles: 32273604
0banks busy for write cycles: 41440
1banks busy for read cycles: 31933912
1banks busy for write cycles: 5892234
2banks busy for read cycles: 21000263
2banks busy for write cycles: 4632522
3banks busy for read cycles: 12493646
3banks busy for write cycles: 3860318
4banks busy for read cycles: 7321048
4banks busy for write cycles: 3008343
5banks busy for read cycles: 6780892
5banks busy for write cycles: 2172908
6banks busy for read cycles: 8471240
6banks busy for write cycles: 1516651
7banks busy for read cycles: 12586203
7banks busy for write cycles: 1332877
8banks busy for read cycles: 17204255
8banks busy for write cycles: 8319397

CPU 0 Branch Prediction Accuracy: 98.133% MPKI: 1.81274 Average ROB Occupancy at Mispredict: 211.539
Branch types
NOT_BRANCH: 45145344 90.2907%
BRANCH_DIRECT_JUMP: 215829 0.431658%
BRANCH_INDIRECT: 0 0%
BRANCH_CONDITIONAL: 4638791 9.27758%
BRANCH_DIRECT_CALL: 20 4e-05%
BRANCH_INDIRECT_CALL: 0 0%
BRANCH_RETURN: 20 4e-05%
BRANCH_OTHER: 0 0%

@sumon_overall_L1D    317629    220799    698361   1015861  12456889  12457082
@Sumon_Early_by_class_L1D     72735    119281    123458      2115
@Sumon_Late_by_class_L1D     93963      1867    122428      2115

@Sumon_Early_by_cycle_L1D     28264     32619     25253     12614      8542     75480     32970     22059     36817     26828     12458      3725
@Sumon_Late_by_cycle_L1D     50022     33615     53727     36866     24815     21398       355         1         0         0         0         0
@Sumon_Early_stream_L1D     17346     18217      8010      2390      1134      7134      4531      4273      4046      3605      1202       847
@Sumon_Early_CS_L1D      4578      1821      3222      2597      3725     52888     21338      9598     18785       727         1         1
@Sumon_Early_CPLX_L1D      6129     12061     13662      7385      3551     15243      7039      8074     13848     22393     11222      2851
@Sumon_Late_stream_L1D     37404     17482     16892      8861      7042      6228        54         0         0         0         0         0
@Sumon_Late_CS_L1D       825       411       271       154        82       123         1         0         0         0         0         0
@Sumon_Late_CPLX_L1D      9888     15414     36331     27805     17670     15020       299         1         0         0         0         0
@sumon_overall_L2C     18973       154   1018463   1037926    344777    344777
@Sumon_Early_by_class_L2C      2363       671     13502         0
@Sumon_Late_by_class_L2C         0       118         0         0

@Sumon_Early_by_cycle_L2C        12        30        54        33        33       333       247       234       366      1210      3314     13107
@Sumon_Late_by_cycle_L2C        15        14        34        28        30        32         1         0         0         0         0         0
@Sumon_Early_stream_L2C         0         0         0         0         0         0         0         1         1        91       506      1764
@Sumon_Early_CS_L2C        12        30        54        33        32       255       182        24        19        30         0         0
@Sumon_Early_CPLX_L2C         0         0         0         0         0         0         0         1        11       491      2467     10532
@Sumon_Late_stream_L2C         0         0         0         0         0         0         0         0         0         0         0         0
@Sumon_Late_CS_L2C        12        14        28        26        18        19         1         0         0         0         0         0
@Sumon_Late_CPLX_L2C         0         0         0         0         0         0         0         0         0         0         0         0
DRAM PAGES: 1048576
Allocated PAGES: 18248
