
*** ChampSim Multicore Out-of-Order Simulator ***

Warmup Instructions: 10000000
Simulation Instructions: 50000000
Number of CPUs: 1
LLC sets: 2048
LLC ways: 16
Off-chip DRAM Size: 4096 MB Channels: 1 Width: 64-bit Data Rate: 533 MT/s
CPU 0 runs traces/SPEC2017/619.lbm_s-2677B.champsimtrace.xz
.xz
CPU 0 Bimodal branch predictor
BTB has LRU replacement policy
ITLB has LRU replacement policy
DTLB has LRU replacement policy
STLB has LRU replacement policy
L1I has LRU replacement policy
IP Table Entries: 256
L1D has LRU replacement policy
IP_Table L2 entries: 256
L2C has LRU replacement policy
LLC has LRU replacement policy
Heartbeat CPU 0 instructions: 10000001 cycles: 2911371 heartbeat IPC: 3.43481 cumulative IPC: 3.43481 (Simulation time: 0 hr 21 min 5 sec) 

Warmup complete CPU 0 instructions: 10000001 cycles: 2911371 (Simulation time: 0 hr 21 min 5 sec) 

Heartbeat CPU 0 instructions: 20000002 cycles: 56054363 heartbeat IPC: 0.188172 cumulative IPC: 0.188172 (Simulation time: 1 hr 45 min 27 sec) 
Heartbeat CPU 0 instructions: 30000000 cycles: 110744442 heartbeat IPC: 0.182848 cumulative IPC: 0.185472 (Simulation time: 2 hr 35 min 58 sec) 
Heartbeat CPU 0 instructions: 40000001 cycles: 164722717 heartbeat IPC: 0.18526 cumulative IPC: 0.185401 (Simulation time: 3 hr 9 min 1 sec) 
Heartbeat CPU 0 instructions: 50000000 cycles: 219985185 heartbeat IPC: 0.180955 cumulative IPC: 0.184269 (Simulation time: 3 hr 27 min 38 sec) 
Heartbeat CPU 0 instructions: 60000002 cycles: 274721022 heartbeat IPC: 0.182696 cumulative IPC: 0.183952 (Simulation time: 3 hr 39 min 11 sec) 
Finished CPU 0 instructions: 50000001 cycles: 271809651 cumulative IPC: 0.183952 (Simulation time: 3 hr 39 min 11 sec) 

ChampSim completed all CPUs

Region of Interest Statistics

CPU 0 cumulative IPC: 0.183952 instructions: 50000001 cycles: 271809651
ITLB TOTAL     ACCESS:    6789385  HIT:    6789385  MISS:          0  HIT %:        100  MISS %:          0   MPKI: 0
ITLB LOAD TRANSLATION ACCESS:    6789385  HIT:    6789385  MISS:          0  HIT %:        100  MISS %:          0   MPKI: 0
ITLB PREFETCH  REQUESTED:          0  ISSUED:          0  USEFUL:          0  USELESS:          0
ITLB USEFUL LOAD PREFETCHES:          0 PREFETCH ISSUED TO LOWER LEVEL:          0  ACCURACY: -nan
ITLB TIMELY PREFETCHES:          0 LATE PREFETCHES: 0 DROPPED PREFETCHES: 0
ITLB PREFETCHES SAME FILL-ORIGIN LEVEL: 0 DIFFERENT FILL-ORIGIN LEVEL: 0
ITLB AVERAGE MISS LATENCY: -nan cycles
ITLB RQ	ACCESS:    8760682	FORWARD:          0	MERGED:    1971298	TO_CACHE:    6789384

DTLB TOTAL     ACCESS:    8148079  HIT:    8080063  MISS:      68016  HIT %:    99.1653  MISS %:   0.834749   MPKI: 1.36032
DTLB LOAD TRANSLATION ACCESS:    8148079  HIT:    8080063  MISS:      68016  HIT %:    99.1653  MISS %:   0.834749   MPKI: 1.36032
DTLB PREFETCH  REQUESTED:          0  ISSUED:          0  USEFUL:          0  USELESS:          0
DTLB USEFUL LOAD PREFETCHES:          0 PREFETCH ISSUED TO LOWER LEVEL:          0  ACCURACY: -nan
DTLB TIMELY PREFETCHES:          0 LATE PREFETCHES: 0 DROPPED PREFETCHES: 0
DTLB PREFETCHES SAME FILL-ORIGIN LEVEL: 0 DIFFERENT FILL-ORIGIN LEVEL: 0
DTLB AVERAGE MISS LATENCY: 226.96 cycles
DTLB RQ	ACCESS:   11627371	FORWARD:          0	MERGED:    3445033	TO_CACHE:    8182338

STLB TOTAL     ACCESS:     427714  HIT:     390806  MISS:      36908  HIT %:    91.3709  MISS %:    8.62913   MPKI: 0.73816
STLB LOAD TRANSLATION ACCESS:      68016  HIT:      31108  MISS:      36908  HIT %:    45.7363  MISS %:    54.2637   MPKI: 0.73816
STLB TRANSLATION FROM L1D PREFETCHER ACCESS:     359698  HIT:     359698  MISS:          0  HIT %:        100  MISS %:          0   MPKI: 0
STLB PREFETCH  REQUESTED:          0  ISSUED:          0  USEFUL:          0  USELESS:          0
STLB USEFUL LOAD PREFETCHES:          0 PREFETCH ISSUED TO LOWER LEVEL:          0  ACCURACY: -nan
STLB TIMELY PREFETCHES:          0 LATE PREFETCHES: 0 DROPPED PREFETCHES: 0
STLB PREFETCHES SAME FILL-ORIGIN LEVEL: 0 DIFFERENT FILL-ORIGIN LEVEL: 0
STLB AVERAGE MISS LATENCY: 399.359 cycles
STLB RQ	ACCESS:     674444	FORWARD:          0	MERGED:     246730	TO_CACHE:     427714

STLB Hit, L1D data hit: 0
STLB Hit, L2C data hit: 0
STLB Hit, LLC data hit: 0
STLB Hit, LLC data miss: 0
STLB STLB hints to L2: 0
L1D TOTAL     ACCESS:   11913649  HIT:    8017315  MISS:    3896334  HIT %:    67.2952  MISS %:    32.7048   MPKI: 77.9267
L1D LOAD      ACCESS:    3586892  HIT:    3365888  MISS:     221004  HIT %:    93.8386  MISS %:    6.16143   MPKI: 4.42008
L1D RFO       ACCESS:    7876979  HIT:    4571038  MISS:    3305941  HIT %:    58.0303  MISS %:    41.9697   MPKI: 66.1188
L1D PREFETCH  ACCESS:     449778  HIT:      80389  MISS:     369389  HIT %:     17.873  MISS %:     82.127   MPKI: 7.38778
L1D PREFETCH  REQUESTED:    1235872  ISSUED:    1212869  USEFUL:     369387  USELESS:          0
L1D USEFUL LOAD PREFETCHES:     369387 PREFETCH ISSUED TO LOWER LEVEL:     435698  ACCURACY: 84.7805
L1D TIMELY PREFETCHES:     369387 LATE PREFETCHES: 66155 DROPPED PREFETCHES: 0
L1D PREFETCHES SAME FILL-ORIGIN LEVEL: 435698 DIFFERENT FILL-ORIGIN LEVEL: 0
L1D AVERAGE MISS LATENCY: 2.3506e+06 cycles
L1D RQ	ACCESS:   12155364	FORWARD:          0	MERGED:    5944037	TO_CACHE:    3642456
L1D WQ	ACCESS:    9189247	FORWARD:    2568871	MERGED:    1204332	TO_CACHE:    7984915
L1D PQ	ACCESS:     606441	FORWARD:          0	MERGED:         13	TO_CACHE:     606428

L1D UNIQUE REGIONS ACCESSED: 0
L1D REGIONS CONFLICTS: 0
L1D Cross Page Prefetch Requests: 0
L1D Same Page Prefetch Requests: 734457
L1D ROI Sum of L1D PQ occupancy: 1689766373
L1D PREFETCHES PUSHED FROM L2C: 0
L1I TOTAL     ACCESS:    8760683  HIT:    8760683  MISS:          0  HIT %:        100  MISS %:          0   MPKI: 0
L1I LOAD      ACCESS:    8760683  HIT:    8760683  MISS:          0  HIT %:        100  MISS %:          0   MPKI: 0
L1I PREFETCH  REQUESTED:          0  ISSUED:          0  USEFUL:          0  USELESS:          0
L1I USEFUL LOAD PREFETCHES:          0 PREFETCH ISSUED TO LOWER LEVEL:          0  ACCURACY: -nan
L1I TIMELY PREFETCHES:          0 LATE PREFETCHES: 0 DROPPED PREFETCHES: 0
L1I PREFETCHES SAME FILL-ORIGIN LEVEL: 0 DIFFERENT FILL-ORIGIN LEVEL: 0
L1I AVERAGE MISS LATENCY: -nan cycles
L1I RQ	ACCESS:   12568142	FORWARD:          0	MERGED:    3807460	TO_CACHE:    8760682

BTB TOTAL     ACCESS:     892810  HIT:     892804  MISS:          6  HIT %:    99.9993  MISS %: 0.000672035   MPKI: 0.00012
BTB BRANCH_DIRECT_JUMP	ACCESS:     143919  HIT:     143918  MISS:          1
BTB BRANCH_INDIRECT	ACCESS:          0  HIT:          0  MISS:          0
BTB BRANCH_CONDITIONAL	ACCESS:     748891  HIT:     748886  MISS:          5
BTB BRANCH_DIRECT_CALL	ACCESS:          0  HIT:          0  MISS:          0
BTB BRANCH_INDIRECT_CALL	ACCESS:          0  HIT:          0  MISS:          0
BTB BRANCH_RETURN	ACCESS:          0  HIT:          0  MISS:          0
BTB BRANCH_OTHER ACCESS:          0  HIT:          0  MISS:          0

L2C TOTAL     ACCESS:    7655788  HIT:    5274986  MISS:    2380802  HIT %:    68.9019  MISS %:    31.0981   MPKI: 47.616
L2C LOAD      ACCESS:     154849  HIT:      63361  MISS:      91488  HIT %:    40.9179  MISS %:    59.0821   MPKI: 1.82976
L2C DATA LOAD MPKI: 1.82976
L2C INSTRUCTION LOAD MPKI: 0
L2C RFO       ACCESS:    3305938  HIT:    1520288  MISS:    1785650  HIT %:    45.9866  MISS %:    54.0134   MPKI: 35.713
L2C PREFETCH  ACCESS:     852148  HIT:     353253  MISS:     498895  HIT %:    41.4544  MISS %:    58.5456   MPKI: 9.9779
L2C DATA PREFETCH MPKI: 9.9779
L2C INSTRUCTION PREFETCH MPKI: 0
L2C WRITEBACK ACCESS:    3305943  HIT:    3305836  MISS:        107  HIT %:    99.9968  MISS %:  0.0032366   MPKI: 0.00214
L2C LOAD TRANSLATION ACCESS:      36910  HIT:      32248  MISS:       4662  HIT %:    87.3693  MISS %:    12.6307   MPKI: 0.09324
L2C PREFETCH  REQUESTED:     753401  ISSUED:     753380  USEFUL:      63356  USELESS:     435665
L2C USEFUL LOAD PREFETCHES:      63356 PREFETCH ISSUED TO LOWER LEVEL:     519514  ACCURACY: 12.1952
L2C TIMELY PREFETCHES:      63356 LATE PREFETCHES: 20619 DROPPED PREFETCHES: 0
L2C PREFETCHES SAME FILL-ORIGIN LEVEL: 340215 DIFFERENT FILL-ORIGIN LEVEL: 0
L2C AVERAGE MISS LATENCY: 1865.75 cycles
L2C RQ	ACCESS:    3497713	FORWARD:          0	MERGED:          0	TO_CACHE:    3497712
L2C WQ	ACCESS:    3305944	FORWARD:          1	MERGED:          0	TO_CACHE:    3305944
L2C PQ	ACCESS:    1188923	FORWARD:          0	MERGED:      55737	TO_CACHE:    1133186

L2C Instructions Evicting Data 0
L2C Translations Evicting Data 4662
L2C Data Evicting Data 2371374
L2C Instructions Evicting Instructions 0
L2C Translations Evicting Instructions 0
L2C Data Evicting Instructions 0
L2C Instructions Evicting Translations 0
L2C Translations Evicting Translations 0
L2C Data Evicting Translations 4659
L2C Dense regions hint from L2: 0
PSCL5 TOTAL     ACCESS:      36908  HIT:      36908  MISS:          0  HIT %:        100  MISS %:          0   MPKI: 0
PSCL5 LOAD TRANSLATION ACCESS:      36908  HIT:      36908  MISS:          0  HIT %:        100  MISS %:          0   MPKI: 0
PSCL5 PREFETCH  REQUESTED:          0  ISSUED:          0  USEFUL:          0  USELESS:          0
PSCL5 USEFUL LOAD PREFETCHES:          0 PREFETCH ISSUED TO LOWER LEVEL:          0  ACCURACY: -nan
PSCL5 TIMELY PREFETCHES:          0 LATE PREFETCHES: 0 DROPPED PREFETCHES: 0
PSCL5 PREFETCHES SAME FILL-ORIGIN LEVEL: 0 DIFFERENT FILL-ORIGIN LEVEL: 0

PSCL4 TOTAL     ACCESS:      36908  HIT:      36908  MISS:          0  HIT %:        100  MISS %:          0   MPKI: 0
PSCL4 LOAD TRANSLATION ACCESS:      36908  HIT:      36908  MISS:          0  HIT %:        100  MISS %:          0   MPKI: 0
PSCL4 PREFETCH  REQUESTED:          0  ISSUED:          0  USEFUL:          0  USELESS:          0
PSCL4 USEFUL LOAD PREFETCHES:          0 PREFETCH ISSUED TO LOWER LEVEL:          0  ACCURACY: -nan
PSCL4 TIMELY PREFETCHES:          0 LATE PREFETCHES: 0 DROPPED PREFETCHES: 0
PSCL4 PREFETCHES SAME FILL-ORIGIN LEVEL: 0 DIFFERENT FILL-ORIGIN LEVEL: 0

PSCL3 TOTAL     ACCESS:      36908  HIT:      36908  MISS:          0  HIT %:        100  MISS %:          0   MPKI: 0
PSCL3 LOAD TRANSLATION ACCESS:      36908  HIT:      36908  MISS:          0  HIT %:        100  MISS %:          0   MPKI: 0
PSCL3 PREFETCH  REQUESTED:          0  ISSUED:          0  USEFUL:          0  USELESS:          0
PSCL3 USEFUL LOAD PREFETCHES:          0 PREFETCH ISSUED TO LOWER LEVEL:          0  ACCURACY: -nan
PSCL3 TIMELY PREFETCHES:          0 LATE PREFETCHES: 0 DROPPED PREFETCHES: 0
PSCL3 PREFETCHES SAME FILL-ORIGIN LEVEL: 0 DIFFERENT FILL-ORIGIN LEVEL: 0

PSCL2 TOTAL     ACCESS:      36908  HIT:      36870  MISS:         38  HIT %:     99.897  MISS %:   0.102959   MPKI: 0.00076
PSCL2 LOAD TRANSLATION ACCESS:      36908  HIT:      36870  MISS:         38  HIT %:     99.897  MISS %:   0.102959   MPKI: 0.00076
PSCL2 PREFETCH  REQUESTED:          0  ISSUED:          0  USEFUL:          0  USELESS:          0
PSCL2 USEFUL LOAD PREFETCHES:          0 PREFETCH ISSUED TO LOWER LEVEL:          0  ACCURACY: -nan
PSCL2 TIMELY PREFETCHES:          0 LATE PREFETCHES: 0 DROPPED PREFETCHES: 0
PSCL2 PREFETCHES SAME FILL-ORIGIN LEVEL: 0 DIFFERENT FILL-ORIGIN LEVEL: 0

LLC TOTAL     ACCESS:    4166769  HIT:    1800684  MISS:    2366085  HIT %:    43.2154  MISS %:    56.7846   MPKI: 47.3217
LLC LOAD      ACCESS:      70869  HIT:         18  MISS:      70851  HIT %:   0.025399  MISS %:    99.9746   MPKI: 1.41702
LLC RFO       ACCESS:    1785628  HIT:      14659  MISS:    1770969  HIT %:   0.820944  MISS %:    99.1791   MPKI: 35.4194
LLC PREFETCH  ACCESS:     519514  HIT:          0  MISS:     519514  HIT %:          0  MISS %:        100   MPKI: 10.3903
LLC WRITEBACK ACCESS:    1786096  HIT:    1786007  MISS:         89  HIT %:     99.995  MISS %: 0.00498293   MPKI: 0.00178
LLC LOAD TRANSLATION ACCESS:       4662  HIT:          0  MISS:       4662  HIT %:          0  MISS %:        100   MPKI: 0.09324
LLC PREFETCH  REQUESTED:          0  ISSUED:          0  USEFUL:          0  USELESS:     520405
LLC USEFUL LOAD PREFETCHES:          0 PREFETCH ISSUED TO LOWER LEVEL:     519514  ACCURACY: 0
LLC TIMELY PREFETCHES:          0 LATE PREFETCHES: 0 DROPPED PREFETCHES: 0
LLC PREFETCHES SAME FILL-ORIGIN LEVEL: 0 DIFFERENT FILL-ORIGIN LEVEL: 0
LLC AVERAGE MISS LATENCY: 1854.9 cycles
LLC RQ	ACCESS:    1861195	FORWARD:          0	MERGED:          0	TO_CACHE:    1861173
LLC WQ	ACCESS:    1786096	FORWARD:         22	MERGED:          0	TO_CACHE:    1786096
LLC PQ	ACCESS:     519514	FORWARD:          0	MERGED:          0	TO_CACHE:     519514

LLC Dense regions hint to LLC: 0

RAW hits: 866229
Loads Generated: 13021593
Loads sent to L1D: 12155364
Stores Generated: 9189225
Stores sent to L1D: 9189247
Major fault: 0 Minor fault: 25372
Allocated PAGES: 25372

stream: 
stream:times selected: 2057344
stream:pref_filled: 82188
stream:pref_useful: 82188
stream:pref_late: 24323
stream:misses: 34297
stream:misses_by_poll: 0

CS: 
CS:times selected: 382844
CS:pref_filled: 215824
CS:pref_useful: 215822
CS:pref_late: 18234
CS:misses: 67226
CS:misses_by_poll: 1449

CPLX: 
CPLX:times selected: 1671976
CPLX:pref_filled: 183849
CPLX:pref_useful: 183842
CPLX:pref_late: 25375
CPLX:misses: 168378
CPLX:misses_by_poll: 1049

NL_L1: 
NL:times selected: 1146
NL:pref_filled: 57
NL:pref_useful: 57
NL:pref_late: 27
NL:misses: 193
NL:misses_by_poll: 0

total selections: 4113310
total_filled: 369389
total_useful: 369387
total_late: 68681
total_polluted: 2498
total_misses_after_warmup: 276567
conflicts: 94128
Degree Incremented Times: 52634
Degree Decremented Times: 0

L1 IP Table Write Accesses: 3324695
L1 IP Table Read Accesses: 3230567
L1 RST Write Accesses: 1664671
L1 RST Read Accesses: 3329342
L1 CSPT Write Accesses: 1664671
L1 CSPT Read Accesses: 5204357
L1 RR Filter Tag Write Accesses: 629444
L1 RR Filter Tag Read Accesses: 268083758
L1 IP Table Tag Write Accesses: 3642455
L1 IP Table Tag Read Accesses: 3642455
L1 RST Tag Write Accesses: 0
L1 RST Tag Read Accesses: 15026765
L1 RR Filter Write Accesses: 0
L1 RR Filter Read Accesses: 12004742
test: 340793
L2 IP Table Read Accesses: 890804
L2 IP Table Write Accesses: 736214
L2 IP Table Tag Read Accesses: 445714
L2 IP Table Tag Write Accesses: 445714

DRAM Statistics
 CHANNEL 0
 RQ ROW_BUFFER_HIT:     216806  ROW_BUFFER_MISS:    2149190
 DBUS_CONGESTED:    3939711
 WQ ROW_BUFFER_HIT:     177822  ROW_BUFFER_MISS:    1593118  FULL:          0

 AVG_CONGESTED_CYCLE: 54
 All warmup complete: 2
Channel 0 Bank busy for read cycles: 0
Channel 0 Bank busy for write cycles: 0
Channel 0
Rank 0
0banks busy for read cycles: 9156
0banks busy for write cycles: 0
1banks busy for read cycles: 903494
1banks busy for write cycles: 199952
2banks busy for read cycles: 1183264
2banks busy for write cycles: 199952
3banks busy for read cycles: 1813876
3banks busy for write cycles: 199952
4banks busy for read cycles: 2654919
4banks busy for write cycles: 199952
5banks busy for read cycles: 7692580
5banks busy for write cycles: 199952
6banks busy for read cycles: 27443339
6banks busy for write cycles: 200510
7banks busy for read cycles: 50400856
7banks busy for write cycles: 2001924
8banks busy for read cycles: 63216632
8banks busy for write cycles: 113289342

CPU 0 Branch Prediction Accuracy: 94.966% MPKI: 0.89888 Average ROB Occupancy at Mispredict: 169.483
Branch types
NOT_BRANCH: 49107181 98.2144%
BRANCH_DIRECT_JUMP: 143919 0.287838%
BRANCH_INDIRECT: 0 0%
BRANCH_CONDITIONAL: 748893 1.49779%
BRANCH_DIRECT_CALL: 0 0%
BRANCH_INDIRECT_CALL: 0 0%
BRANCH_RETURN: 0 0%
BRANCH_OTHER: 0 0%

@sumon_overall_L1D    369387     66155         0    369389   1212869   1235872
@Sumon_Early_by_class_L1D     59579    180236    129474        22
@Sumon_Late_by_class_L1D     22285     18164     25139        22

@Sumon_Early_by_cycle_L1D     10236     17456     23369     15056     15396    115479    106198     52742     12587       868         0         0
@Sumon_Late_by_cycle_L1D      8461      8829      7510      4517      6320     22088      7622       807         1         0         0         0
@Sumon_Early_stream_L1D      3399      5536      7826      4427      5469     25198      7522       202         0         0         0         0
@Sumon_Early_CS_L1D      3367      6137      7577      5700      4865     55656     69001     27495       438         0         0         0
@Sumon_Early_CPLX_L1D      3461      5770      7953      4922      5054     34598     29665     25036     12147       868         0         0
@Sumon_Late_stream_L1D      2949      3041      2592      1495      1922      7271      2700       315         0         0         0         0
@Sumon_Late_CS_L1D      2396      2483      1920      1064      1688      5955      2373       285         0         0         0         0
@Sumon_Late_CPLX_L1D      2582      3300      2996      1952      2706      8850      2545       207         1         0         0         0
@sumon_overall_L2C     63356     20619    435665    498895    753380    753401
@Sumon_Early_by_class_L2C     22911     40384         0         0
@Sumon_Late_by_class_L2C     15821      4786         0         0

@Sumon_Early_by_cycle_L2C       541      1713      1591       689      1025     13650     18610     22338      3199         0         0         0
@Sumon_Late_by_cycle_L2C      1342      1495      2544       676       769      9671      3839       283         0         0         0         0
@Sumon_Early_stream_L2C       428      1396      1265       534       805     10127      7745       611         0         0         0         0
@Sumon_Early_CS_L2C       113       317       326       155       220      3515     10845     21701      3192         0         0         0
@Sumon_Early_CPLX_L2C         0         0         0         0         0         0         0         0         0         0         0         0
@Sumon_Late_stream_L2C      1040      1144      1859       578       585      7399      2985       231         0         0         0         0
@Sumon_Late_CS_L2C       291       351       685        97       184      2272       854        52         0         0         0         0
@Sumon_Late_CPLX_L2C         0         0         0         0         0         0         0         0         0         0         0         0
DRAM PAGES: 1048576
Allocated PAGES: 25372
