
*** ChampSim Multicore Out-of-Order Simulator ***

Warmup Instructions: 10000000
Simulation Instructions: 50000000
Number of CPUs: 1
LLC sets: 2048
LLC ways: 16
Off-chip DRAM Size: 4096 MB Channels: 1 Width: 64-bit Data Rate: 533 MT/s
CPU 0 runs traces/SPEC2017/654.roms_s-294B.champsimtrace.xz
.xz
CPU 0 Bimodal branch predictor
BTB has LRU replacement policy
ITLB has LRU replacement policy
DTLB has LRU replacement policy
STLB has LRU replacement policy
L1I has LRU replacement policy
IP Table Entries: 256
L1D has LRU replacement policy
IP_Table L2 entries: 256
L2C has LRU replacement policy
LLC has LRU replacement policy
Heartbeat CPU 0 instructions: 10000001 cycles: 3208761 heartbeat IPC: 3.11647 cumulative IPC: 3.11647 (Simulation time: 0 hr 26 min 59 sec) 

Warmup complete CPU 0 instructions: 10000001 cycles: 3208761 (Simulation time: 0 hr 26 min 59 sec) 

Heartbeat CPU 0 instructions: 20000000 cycles: 13444267 heartbeat IPC: 0.976991 cumulative IPC: 0.976991 (Simulation time: 0 hr 47 min 38 sec) 
Heartbeat CPU 0 instructions: 30000003 cycles: 23680425 heartbeat IPC: 0.976929 cumulative IPC: 0.97696 (Simulation time: 1 hr 8 min 7 sec) 
Heartbeat CPU 0 instructions: 40000001 cycles: 33910436 heartbeat IPC: 0.977516 cumulative IPC: 0.977145 (Simulation time: 1 hr 28 min 34 sec) 
Heartbeat CPU 0 instructions: 50000002 cycles: 44119638 heartbeat IPC: 0.979509 cumulative IPC: 0.977735 (Simulation time: 1 hr 48 min 28 sec) 
Heartbeat CPU 0 instructions: 60000002 cycles: 54362089 heartbeat IPC: 0.976329 cumulative IPC: 0.977454 (Simulation time: 2 hr 4 min 44 sec) 
Finished CPU 0 instructions: 50000001 cycles: 51153328 cumulative IPC: 0.977454 (Simulation time: 2 hr 4 min 44 sec) 

ChampSim completed all CPUs

Region of Interest Statistics

CPU 0 cumulative IPC: 0.977454 instructions: 50000001 cycles: 51153328
ITLB TOTAL     ACCESS:    6704167  HIT:    6704167  MISS:          0  HIT %:        100  MISS %:          0   MPKI: 0
ITLB LOAD TRANSLATION ACCESS:    6704167  HIT:    6704167  MISS:          0  HIT %:        100  MISS %:          0   MPKI: 0
ITLB PREFETCH  REQUESTED:          0  ISSUED:          0  USEFUL:          0  USELESS:          0
ITLB USEFUL LOAD PREFETCHES:          0 PREFETCH ISSUED TO LOWER LEVEL:          0  ACCURACY: -nan
ITLB TIMELY PREFETCHES:          0 LATE PREFETCHES: 0 DROPPED PREFETCHES: 0
ITLB PREFETCHES SAME FILL-ORIGIN LEVEL: 0 DIFFERENT FILL-ORIGIN LEVEL: 0
ITLB AVERAGE MISS LATENCY: -nan cycles
ITLB RQ	ACCESS:    8363314	FORWARD:          0	MERGED:    1659148	TO_CACHE:    6704166

DTLB TOTAL     ACCESS:   13447512  HIT:   13427756  MISS:      19756  HIT %:    99.8531  MISS %:   0.146912   MPKI: 0.39512
DTLB LOAD TRANSLATION ACCESS:   13447512  HIT:   13427756  MISS:      19756  HIT %:    99.8531  MISS %:   0.146912   MPKI: 0.39512
DTLB PREFETCH  REQUESTED:          0  ISSUED:          0  USEFUL:          0  USELESS:          0
DTLB USEFUL LOAD PREFETCHES:          0 PREFETCH ISSUED TO LOWER LEVEL:          0  ACCURACY: -nan
DTLB TIMELY PREFETCHES:          0 LATE PREFETCHES: 0 DROPPED PREFETCHES: 0
DTLB PREFETCHES SAME FILL-ORIGIN LEVEL: 0 DIFFERENT FILL-ORIGIN LEVEL: 0
DTLB AVERAGE MISS LATENCY: 521.632 cycles
DTLB RQ	ACCESS:   14516330	FORWARD:          0	MERGED:    1066163	TO_CACHE:   13450167

STLB TOTAL     ACCESS:     864648  HIT:     848217  MISS:      16431  HIT %:    98.0997  MISS %:    1.90031   MPKI: 0.32862
STLB LOAD TRANSLATION ACCESS:      19756  HIT:       3325  MISS:      16431  HIT %:    16.8303  MISS %:    83.1697   MPKI: 0.32862
STLB TRANSLATION FROM L1D PREFETCHER ACCESS:     844892  HIT:     844892  MISS:          0  HIT %:        100  MISS %:          0   MPKI: 0
STLB PREFETCH  REQUESTED:          0  ISSUED:          0  USEFUL:          0  USELESS:          0
STLB USEFUL LOAD PREFETCHES:          0 PREFETCH ISSUED TO LOWER LEVEL:          0  ACCURACY: -nan
STLB TIMELY PREFETCHES:          0 LATE PREFETCHES: 0 DROPPED PREFETCHES: 0
STLB PREFETCHES SAME FILL-ORIGIN LEVEL: 0 DIFFERENT FILL-ORIGIN LEVEL: 0
STLB AVERAGE MISS LATENCY: 615.147 cycles
STLB RQ	ACCESS:    4558736	FORWARD:          0	MERGED:    3694088	TO_CACHE:     864648

STLB Hit, L1D data hit: 0
STLB Hit, L2C data hit: 0
STLB Hit, LLC data hit: 0
STLB Hit, LLC data miss: 0
STLB STLB hints to L2: 0
L1D TOTAL     ACCESS:   18990274  HIT:   18269522  MISS:     720752  HIT %:    96.2046  MISS %:    3.79537   MPKI: 14.415
L1D LOAD      ACCESS:   12797633  HIT:   12733709  MISS:      63924  HIT %:    99.5005  MISS %:   0.499499   MPKI: 1.27848
L1D RFO       ACCESS:    1677380  HIT:    1672650  MISS:       4730  HIT %:     99.718  MISS %:   0.281987   MPKI: 0.0946
L1D PREFETCH  ACCESS:    4515261  HIT:    3863163  MISS:     652098  HIT %:    85.5579  MISS %:    14.4421   MPKI: 13.042
L1D PREFETCH  REQUESTED:    9839475  ISSUED:    9077960  USEFUL:     596632  USELESS:      55457
L1D USEFUL LOAD PREFETCHES:     596632 PREFETCH ISSUED TO LOWER LEVEL:     665595  ACCURACY: 89.6389
L1D TIMELY PREFETCHES:     596632 LATE PREFETCHES: 2779 DROPPED PREFETCHES: 0
L1D PREFETCHES SAME FILL-ORIGIN LEVEL: 665595 DIFFERENT FILL-ORIGIN LEVEL: 0
L1D AVERAGE MISS LATENCY: 110086 cycles
L1D RQ	ACCESS:   19112586	FORWARD:          0	MERGED:    6296125	TO_CACHE:   12816455
L1D WQ	ACCESS:    1699875	FORWARD:          6	MERGED:          0	TO_CACHE:    1699875
L1D PQ	ACCESS:    4538980	FORWARD:          0	MERGED:          0	TO_CACHE:    4538980

L1D UNIQUE REGIONS ACCESSED: 0
L1D REGIONS CONFLICTS: 0
L1D Cross Page Prefetch Requests: 0
L1D Same Page Prefetch Requests: 5509002
L1D ROI Sum of L1D PQ occupancy: 71265731
L1D PREFETCHES PUSHED FROM L2C: 0
L1I TOTAL     ACCESS:    8363314  HIT:    8363314  MISS:          0  HIT %:        100  MISS %:          0   MPKI: 0
L1I LOAD      ACCESS:    8363314  HIT:    8363314  MISS:          0  HIT %:        100  MISS %:          0   MPKI: 0
L1I PREFETCH  REQUESTED:          0  ISSUED:          0  USEFUL:          0  USELESS:          0
L1I USEFUL LOAD PREFETCHES:          0 PREFETCH ISSUED TO LOWER LEVEL:          0  ACCURACY: -nan
L1I TIMELY PREFETCHES:          0 LATE PREFETCHES: 0 DROPPED PREFETCHES: 0
L1I PREFETCHES SAME FILL-ORIGIN LEVEL: 0 DIFFERENT FILL-ORIGIN LEVEL: 0
L1I AVERAGE MISS LATENCY: -nan cycles
L1I RQ	ACCESS:   13388585	FORWARD:          0	MERGED:    5025271	TO_CACHE:    8363314

BTB TOTAL     ACCESS:    2106371  HIT:    2106360  MISS:         11  HIT %:    99.9995  MISS %: 0.000522225   MPKI: 0.00022
BTB BRANCH_DIRECT_JUMP	ACCESS:         40  HIT:         39  MISS:          1
BTB BRANCH_INDIRECT	ACCESS:          0  HIT:          0  MISS:          0
BTB BRANCH_CONDITIONAL	ACCESS:    2106251  HIT:    2106243  MISS:          8
BTB BRANCH_DIRECT_CALL	ACCESS:         40  HIT:         39  MISS:          1
BTB BRANCH_INDIRECT_CALL	ACCESS:          0  HIT:          0  MISS:          0
BTB BRANCH_RETURN	ACCESS:         40  HIT:         39  MISS:          1
BTB BRANCH_OTHER ACCESS:          0  HIT:          0  MISS:          0

L2C TOTAL     ACCESS:    3206664  HIT:    2448989  MISS:     757675  HIT %:    76.3719  MISS %:    23.6281   MPKI: 15.1535
L2C LOAD      ACCESS:      61145  HIT:      36234  MISS:      24911  HIT %:    59.2591  MISS %:    40.7409   MPKI: 0.49822
L2C DATA LOAD MPKI: 0.49822
L2C INSTRUCTION LOAD MPKI: 0
L2C RFO       ACCESS:       4730  HIT:        477  MISS:       4253  HIT %:    10.0846  MISS %:    89.9154   MPKI: 0.08506
L2C PREFETCH  ACCESS:    3095867  HIT:    2382799  MISS:     713068  HIT %:    76.9671  MISS %:    23.0329   MPKI: 14.2614
L2C DATA PREFETCH MPKI: 14.2614
L2C INSTRUCTION PREFETCH MPKI: 0
L2C WRITEBACK ACCESS:      20277  HIT:      18383  MISS:       1894  HIT %:    90.6594  MISS %:    9.34063   MPKI: 0.03788
L2C LOAD TRANSLATION ACCESS:      24645  HIT:      11096  MISS:      13549  HIT %:    45.0233  MISS %:    54.9767   MPKI: 0.27098
L2C PREFETCH  REQUESTED:    3169445  ISSUED:    2982825  USEFUL:      33079  USELESS:     680244
L2C USEFUL LOAD PREFETCHES:      33079 PREFETCH ISSUED TO LOWER LEVEL:     713388  ACCURACY: 4.63689
L2C TIMELY PREFETCHES:      33079 LATE PREFETCHES: 313 DROPPED PREFETCHES: 0
L2C PREFETCHES SAME FILL-ORIGIN LEVEL: 590924 DIFFERENT FILL-ORIGIN LEVEL: 0
L2C AVERAGE MISS LATENCY: 340.795 cycles
L2C RQ	ACCESS:      90520	FORWARD:          0	MERGED:          0	TO_CACHE:      90520
L2C WQ	ACCESS:      20277	FORWARD:         33	MERGED:          0	TO_CACHE:      20277
L2C PQ	ACCESS:    3637703	FORWARD:          0	MERGED:     434245	TO_CACHE:    3203425

L2C Instructions Evicting Data 0
L2C Translations Evicting Data 13262
L2C Data Evicting Data 729029
L2C Instructions Evicting Instructions 0
L2C Translations Evicting Instructions 0
L2C Data Evicting Instructions 0
L2C Instructions Evicting Translations 0
L2C Translations Evicting Translations 287
L2C Data Evicting Translations 13203
L2C Dense regions hint from L2: 0
PSCL5 TOTAL     ACCESS:      16431  HIT:      16431  MISS:          0  HIT %:        100  MISS %:          0   MPKI: 0
PSCL5 LOAD TRANSLATION ACCESS:      16431  HIT:      16431  MISS:          0  HIT %:        100  MISS %:          0   MPKI: 0
PSCL5 PREFETCH  REQUESTED:          0  ISSUED:          0  USEFUL:          0  USELESS:          0
PSCL5 USEFUL LOAD PREFETCHES:          0 PREFETCH ISSUED TO LOWER LEVEL:          0  ACCURACY: -nan
PSCL5 TIMELY PREFETCHES:          0 LATE PREFETCHES: 0 DROPPED PREFETCHES: 0
PSCL5 PREFETCHES SAME FILL-ORIGIN LEVEL: 0 DIFFERENT FILL-ORIGIN LEVEL: 0

PSCL4 TOTAL     ACCESS:      16431  HIT:      16431  MISS:          0  HIT %:        100  MISS %:          0   MPKI: 0
PSCL4 LOAD TRANSLATION ACCESS:      16431  HIT:      16431  MISS:          0  HIT %:        100  MISS %:          0   MPKI: 0
PSCL4 PREFETCH  REQUESTED:          0  ISSUED:          0  USEFUL:          0  USELESS:          0
PSCL4 USEFUL LOAD PREFETCHES:          0 PREFETCH ISSUED TO LOWER LEVEL:          0  ACCURACY: -nan
PSCL4 TIMELY PREFETCHES:          0 LATE PREFETCHES: 0 DROPPED PREFETCHES: 0
PSCL4 PREFETCHES SAME FILL-ORIGIN LEVEL: 0 DIFFERENT FILL-ORIGIN LEVEL: 0

PSCL3 TOTAL     ACCESS:      16430  HIT:      16425  MISS:          5  HIT %:    99.9696  MISS %:  0.0304321   MPKI: 0.0001
PSCL3 LOAD TRANSLATION ACCESS:      16430  HIT:      16425  MISS:          5  HIT %:    99.9696  MISS %:  0.0304321   MPKI: 0.0001
PSCL3 PREFETCH  REQUESTED:          0  ISSUED:          0  USEFUL:          0  USELESS:          0
PSCL3 USEFUL LOAD PREFETCHES:          0 PREFETCH ISSUED TO LOWER LEVEL:          0  ACCURACY: -nan
PSCL3 TIMELY PREFETCHES:          0 LATE PREFETCHES: 0 DROPPED PREFETCHES: 0
PSCL3 PREFETCHES SAME FILL-ORIGIN LEVEL: 0 DIFFERENT FILL-ORIGIN LEVEL: 0

PSCL2 TOTAL     ACCESS:      16431  HIT:       8154  MISS:       8277  HIT %:    49.6257  MISS %:    50.3743   MPKI: 0.16554
PSCL2 LOAD TRANSLATION ACCESS:      16431  HIT:       8154  MISS:       8277  HIT %:    49.6257  MISS %:    50.3743   MPKI: 0.16554
PSCL2 PREFETCH  REQUESTED:          0  ISSUED:          0  USEFUL:          0  USELESS:          0
PSCL2 USEFUL LOAD PREFETCHES:          0 PREFETCH ISSUED TO LOWER LEVEL:          0  ACCURACY: -nan
PSCL2 TIMELY PREFETCHES:          0 LATE PREFETCHES: 0 DROPPED PREFETCHES: 0
PSCL2 PREFETCHES SAME FILL-ORIGIN LEVEL: 0 DIFFERENT FILL-ORIGIN LEVEL: 0

LLC TOTAL     ACCESS:     761315  HIT:     136970  MISS:     624345  HIT %:    17.9912  MISS %:    82.0088   MPKI: 12.4869
LLC LOAD      ACCESS:      24598  HIT:       3595  MISS:      21003  HIT %:     14.615  MISS %:     85.385   MPKI: 0.42006
LLC RFO       ACCESS:       4253  HIT:         40  MISS:       4213  HIT %:   0.940513  MISS %:    99.0595   MPKI: 0.08426
LLC PREFETCH  ACCESS:     713381  HIT:     119456  MISS:     593925  HIT %:     16.745  MISS %:     83.255   MPKI: 11.8785
LLC WRITEBACK ACCESS:       5534  HIT:       4468  MISS:       1066  HIT %:    80.7373  MISS %:    19.2627   MPKI: 0.02132
LLC LOAD TRANSLATION ACCESS:      13549  HIT:       9411  MISS:       4138  HIT %:     69.459  MISS %:     30.541   MPKI: 0.08276
LLC PREFETCH  REQUESTED:          0  ISSUED:          0  USEFUL:         31  USELESS:     594007
LLC USEFUL LOAD PREFETCHES:         31 PREFETCH ISSUED TO LOWER LEVEL:     593932  ACCURACY: 0.00521945
LLC TIMELY PREFETCHES:         31 LATE PREFETCHES: 0 DROPPED PREFETCHES: 0
LLC PREFETCHES SAME FILL-ORIGIN LEVEL: 0 DIFFERENT FILL-ORIGIN LEVEL: 0
LLC AVERAGE MISS LATENCY: 375.726 cycles
LLC RQ	ACCESS:      42400	FORWARD:          0	MERGED:          0	TO_CACHE:      42400
LLC WQ	ACCESS:       5534	FORWARD:          0	MERGED:          0	TO_CACHE:       5534
LLC PQ	ACCESS:     713388	FORWARD:          0	MERGED:          0	TO_CACHE:     713388

LLC Dense regions hint to LLC: 0

RAW hits: 90
Loads Generated: 19112677
Loads sent to L1D: 19112586
Stores Generated: 1699875
Stores sent to L1D: 1699875
Major fault: 0 Minor fault: 20110
Allocated PAGES: 20110

stream: 
stream:times selected: 1265709
stream:pref_filled: 790647
stream:pref_useful: 722939
stream:pref_late: 2808
stream:misses: 9
stream:misses_by_poll: 0

CS: 
CS:times selected: 1264194
CS:pref_filled: 1254
CS:pref_useful: 1233
CS:pref_late: 9
CS:misses: 85399
CS:misses_by_poll: 0

CPLX: 
CPLX:times selected: 1481
CPLX:pref_filled: 71
CPLX:pref_useful: 7
CPLX:pref_late: 0
CPLX:misses: 656
CPLX:misses_by_poll: 0

NL_L1: 
NL:times selected: 2
NL:pref_filled: 2
NL:pref_useful: 2
NL:pref_late: 0
NL:misses: 0
NL:misses_by_poll: 0

total selections: 2531386
total_filled: 652098
total_useful: 596632
total_late: 2894
total_polluted: 0
total_misses_after_warmup: 82743
conflicts: 17
Degree Incremented Times: 186423
Degree Decremented Times: 0

L1 IP Table Write Accesses: 12816235
L1 IP Table Read Accesses: 12816218
L1 RST Write Accesses: 1055981
L1 RST Read Accesses: 2111962
L1 CSPT Write Accesses: 1055981
L1 CSPT Read Accesses: 1059832
L1 RR Filter Tag Write Accesses: 5300495
L1 RR Filter Tag Read Accesses: 262201581
L1 IP Table Tag Write Accesses: 12816452
L1 IP Table Tag Read Accesses: 12816452
L1 RST Tag Write Accesses: 0
L1 RST Tag Read Accesses: 9511669
L1 RR Filter Write Accesses: 0
L1 RR Filter Read Accesses: 9048594
test: 35076
L2 IP Table Read Accesses: 1124242
L2 IP Table Write Accesses: 1063100
L2 IP Table Tag Read Accesses: 562122
L2 IP Table Tag Write Accesses: 562122

DRAM Statistics
 CHANNEL 0
 RQ ROW_BUFFER_HIT:     524312  ROW_BUFFER_MISS:      98968
 DBUS_CONGESTED:     515072
 WQ ROW_BUFFER_HIT:       2544  ROW_BUFFER_MISS:       2741  FULL:          0

 AVG_CONGESTED_CYCLE: 50
 All warmup complete: 2
Channel 0 Bank busy for read cycles: 0
Channel 0 Bank busy for write cycles: 0
Channel 0
Rank 0
0banks busy for read cycles: 14078609
0banks busy for write cycles: 2103
1banks busy for read cycles: 9107297
1banks busy for write cycles: 373607
2banks busy for read cycles: 4789127
2banks busy for write cycles: 179454
3banks busy for read cycles: 3449808
3banks busy for write cycles: 103730
4banks busy for read cycles: 3209130
4banks busy for write cycles: 72842
5banks busy for read cycles: 3142075
5banks busy for write cycles: 56709
6banks busy for read cycles: 2908407
6banks busy for write cycles: 40857
7banks busy for read cycles: 4288588
7banks busy for write cycles: 34493
8banks busy for read cycles: 5292023
8banks busy for write cycles: 24470

CPU 0 Branch Prediction Accuracy: 99.9267% MPKI: 0.03682 Average ROB Occupancy at Mispredict: 76.8251
Branch types
NOT_BRANCH: 47488929 94.9779%
BRANCH_DIRECT_JUMP: 40 8e-05%
BRANCH_INDIRECT: 0 0%
BRANCH_CONDITIONAL: 2510869 5.02174%
BRANCH_DIRECT_CALL: 40 8e-05%
BRANCH_INDIRECT_CALL: 0 0%
BRANCH_RETURN: 40 8e-05%
BRANCH_OTHER: 0 0%

@sumon_overall_L1D    596632      2779     55457    652098   9077960   9839475
@Sumon_Early_by_class_L1D    595793       832         7         0
@Sumon_Late_by_class_L1D      2697         5         0         0

@Sumon_Early_by_cycle_L1D      1114      4185     17202     11148     20685    196963    344093       762        20        51        83       326
@Sumon_Late_by_cycle_L1D      1528       699       295       217        26        14         0         0         0         0         0         0
@Sumon_Early_stream_L1D      1113      4178     17169     11110     20644    196268    344071       760        20        51        83       326
@Sumon_Early_CS_L1D         1         7        32        37        40       691        22         2         0         0         0         0
@Sumon_Early_CPLX_L1D         0         0         1         1         1         4         0         0         0         0         0         0
@Sumon_Late_stream_L1D      1450       696       295       216        26        14         0         0         0         0         0         0
@Sumon_Late_CS_L1D         1         3         0         1         0         0         0         0         0         0         0         0
@Sumon_Late_CPLX_L1D         0         0         0         0         0         0         0         0         0         0         0         0
@sumon_overall_L2C     33079       313    680244    713068   2982825   3169445
@Sumon_Early_by_class_L2C     33064        15         0         0
@Sumon_Late_by_class_L2C       302         2         0         0

@Sumon_Early_by_cycle_L2C        35      1053      2433      2835      1867     12972     11132        46         0         0         0       706
@Sumon_Late_by_cycle_L2C        63        23        20        27        33       146         1         0         0         0         0         0
@Sumon_Early_stream_L2C        35      1053      2431      2831      1863     12967     11132        46         0         0         0       706
@Sumon_Early_CS_L2C         0         0         2         4         4         5         0         0         0         0         0         0
@Sumon_Early_CPLX_L2C         0         0         0         0         0         0         0         0         0         0         0         0
@Sumon_Late_stream_L2C        54        23        19        27        33       145         1         0         0         0         0         0
@Sumon_Late_CS_L2C         0         0         1         0         0         1         0         0         0         0         0         0
@Sumon_Late_CPLX_L2C         0         0         0         0         0         0         0         0         0         0         0         0
DRAM PAGES: 1048576
Allocated PAGES: 20110
