
*** ChampSim Multicore Out-of-Order Simulator ***

Warmup Instructions: 10000000
Simulation Instructions: 50000000
Number of CPUs: 1
LLC sets: 2048
LLC ways: 16
Off-chip DRAM Size: 4096 MB Channels: 1 Width: 64-bit Data Rate: 533 MT/s
CPU 0 runs traces/SPEC2017/654.roms_s-293B.champsimtrace.xz
.xz
CPU 0 Bimodal branch predictor
BTB has LRU replacement policy
ITLB has LRU replacement policy
DTLB has LRU replacement policy
STLB has LRU replacement policy
L1I has LRU replacement policy
IP Table Entries: 256
L1D has LRU replacement policy
IP_Table L2 entries: 256
L2C has LRU replacement policy
LLC has LRU replacement policy
Heartbeat CPU 0 instructions: 10000001 cycles: 3119069 heartbeat IPC: 3.20609 cumulative IPC: 3.20609 (Simulation time: 0 hr 23 min 50 sec) 

Warmup complete CPU 0 instructions: 10000001 cycles: 3119069 (Simulation time: 0 hr 23 min 51 sec) 

Heartbeat CPU 0 instructions: 20000003 cycles: 14289544 heartbeat IPC: 0.895217 cumulative IPC: 0.895217 (Simulation time: 0 hr 44 min 28 sec) 
Heartbeat CPU 0 instructions: 30000000 cycles: 24478492 heartbeat IPC: 0.981455 cumulative IPC: 0.936355 (Simulation time: 1 hr 4 min 3 sec) 
Heartbeat CPU 0 instructions: 40000003 cycles: 35666111 heartbeat IPC: 0.893845 cumulative IPC: 0.921743 (Simulation time: 1 hr 24 min 41 sec) 
Heartbeat CPU 0 instructions: 50000000 cycles: 45864748 heartbeat IPC: 0.980523 cumulative IPC: 0.935767 (Simulation time: 1 hr 43 min 51 sec) 
Heartbeat CPU 0 instructions: 60000002 cycles: 57033039 heartbeat IPC: 0.895392 cumulative IPC: 0.927403 (Simulation time: 2 hr 1 min 31 sec) 
Finished CPU 0 instructions: 50000001 cycles: 53913970 cumulative IPC: 0.927403 (Simulation time: 2 hr 1 min 31 sec) 

ChampSim completed all CPUs

Region of Interest Statistics

CPU 0 cumulative IPC: 0.927403 instructions: 50000001 cycles: 53913970
ITLB TOTAL     ACCESS:    7048915  HIT:    7048915  MISS:          0  HIT %:        100  MISS %:          0   MPKI: 0
ITLB LOAD TRANSLATION ACCESS:    7048915  HIT:    7048915  MISS:          0  HIT %:        100  MISS %:          0   MPKI: 0
ITLB PREFETCH  REQUESTED:          0  ISSUED:          0  USEFUL:          0  USELESS:          0
ITLB USEFUL LOAD PREFETCHES:          0 PREFETCH ISSUED TO LOWER LEVEL:          0  ACCURACY: -nan
ITLB TIMELY PREFETCHES:          0 LATE PREFETCHES: 0 DROPPED PREFETCHES: 0
ITLB PREFETCHES SAME FILL-ORIGIN LEVEL: 0 DIFFERENT FILL-ORIGIN LEVEL: 0
ITLB AVERAGE MISS LATENCY: -nan cycles
ITLB RQ	ACCESS:    8970184	FORWARD:          0	MERGED:    1921269	TO_CACHE:    7048915

DTLB TOTAL     ACCESS:   13151145  HIT:   13136477  MISS:      14668  HIT %:    99.8885  MISS %:   0.111534   MPKI: 0.29336
DTLB LOAD TRANSLATION ACCESS:   13151145  HIT:   13136477  MISS:      14668  HIT %:    99.8885  MISS %:   0.111534   MPKI: 0.29336
DTLB PREFETCH  REQUESTED:          0  ISSUED:          0  USEFUL:          0  USELESS:          0
DTLB USEFUL LOAD PREFETCHES:          0 PREFETCH ISSUED TO LOWER LEVEL:          0  ACCURACY: -nan
DTLB TIMELY PREFETCHES:          0 LATE PREFETCHES: 0 DROPPED PREFETCHES: 0
DTLB PREFETCHES SAME FILL-ORIGIN LEVEL: 0 DIFFERENT FILL-ORIGIN LEVEL: 0
DTLB AVERAGE MISS LATENCY: 310.586 cycles
DTLB RQ	ACCESS:   15217710	FORWARD:          0	MERGED:    2019999	TO_CACHE:   13197711

STLB TOTAL     ACCESS:     411982  HIT:     406942  MISS:       5040  HIT %:    98.7766  MISS %:    1.22335   MPKI: 0.1008
STLB LOAD TRANSLATION ACCESS:      14668  HIT:       9628  MISS:       5040  HIT %:    65.6395  MISS %:    34.3605   MPKI: 0.1008
STLB TRANSLATION FROM L1D PREFETCHER ACCESS:     397314  HIT:     397314  MISS:          0  HIT %:        100  MISS %:          0   MPKI: 0
STLB PREFETCH  REQUESTED:          0  ISSUED:          0  USEFUL:          0  USELESS:          0
STLB USEFUL LOAD PREFETCHES:          0 PREFETCH ISSUED TO LOWER LEVEL:          0  ACCURACY: -nan
STLB TIMELY PREFETCHES:          0 LATE PREFETCHES: 0 DROPPED PREFETCHES: 0
STLB PREFETCHES SAME FILL-ORIGIN LEVEL: 0 DIFFERENT FILL-ORIGIN LEVEL: 0
STLB AVERAGE MISS LATENCY: 876.409 cycles
STLB RQ	ACCESS:    1452952	FORWARD:          0	MERGED:    1040970	TO_CACHE:     411982

STLB Hit, L1D data hit: 0
STLB Hit, L2C data hit: 0
STLB Hit, LLC data hit: 0
STLB Hit, LLC data miss: 0
STLB STLB hints to L2: 0
L1D TOTAL     ACCESS:   16101044  HIT:   15479155  MISS:     621889  HIT %:    96.1376  MISS %:    3.86241   MPKI: 12.4378
L1D LOAD      ACCESS:   10578234  HIT:   10546947  MISS:      31287  HIT %:    99.7042  MISS %:   0.295768   MPKI: 0.62574
L1D RFO       ACCESS:    4121551  HIT:    3889423  MISS:     232128  HIT %:    94.3679  MISS %:    5.63205   MPKI: 4.64256
L1D PREFETCH  ACCESS:    1401259  HIT:    1042785  MISS:     358474  HIT %:    74.4177  MISS %:    25.5823   MPKI: 7.16948
L1D PREFETCH  REQUESTED:    2934408  ISSUED:    2876928  USEFUL:     345516  USELESS:      12941
L1D USEFUL LOAD PREFETCHES:     345516 PREFETCH ISSUED TO LOWER LEVEL:     402531  ACCURACY: 85.8359
L1D TIMELY PREFETCHES:     345516 LATE PREFETCHES: 4358 DROPPED PREFETCHES: 0
L1D PREFETCHES SAME FILL-ORIGIN LEVEL: 402531 DIFFERENT FILL-ORIGIN LEVEL: 0
L1D AVERAGE MISS LATENCY: 211914 cycles
L1D RQ	ACCESS:   16818168	FORWARD:          0	MERGED:    6081992	TO_CACHE:   10593742
L1D WQ	ACCESS:    4623972	FORWARD:     142435	MERGED:          4	TO_CACHE:    4623968
L1D PQ	ACCESS:    1438644	FORWARD:          0	MERGED:        359	TO_CACHE:    1438284

L1D UNIQUE REGIONS ACCESSED: 0
L1D REGIONS CONFLICTS: 0
L1D Cross Page Prefetch Requests: 0
L1D Same Page Prefetch Requests: 1630907
L1D ROI Sum of L1D PQ occupancy: 57673768
L1D PREFETCHES PUSHED FROM L2C: 0
L1I TOTAL     ACCESS:    8970182  HIT:    8970182  MISS:          0  HIT %:        100  MISS %:          0   MPKI: 0
L1I LOAD      ACCESS:    8970182  HIT:    8970182  MISS:          0  HIT %:        100  MISS %:          0   MPKI: 0
L1I PREFETCH  REQUESTED:          0  ISSUED:          0  USEFUL:          0  USELESS:          0
L1I USEFUL LOAD PREFETCHES:          0 PREFETCH ISSUED TO LOWER LEVEL:          0  ACCURACY: -nan
L1I TIMELY PREFETCHES:          0 LATE PREFETCHES: 0 DROPPED PREFETCHES: 0
L1I PREFETCHES SAME FILL-ORIGIN LEVEL: 0 DIFFERENT FILL-ORIGIN LEVEL: 0
L1I AVERAGE MISS LATENCY: -nan cycles
L1I RQ	ACCESS:   11500652	FORWARD:          0	MERGED:    2530468	TO_CACHE:    8970184

BTB TOTAL     ACCESS:     648184  HIT:     648169  MISS:         15  HIT %:    99.9977  MISS %: 0.00231416   MPKI: 0.0003
BTB BRANCH_DIRECT_JUMP	ACCESS:          8  HIT:          7  MISS:          1
BTB BRANCH_INDIRECT	ACCESS:          0  HIT:          0  MISS:          0
BTB BRANCH_CONDITIONAL	ACCESS:     648176  HIT:     648162  MISS:         14
BTB BRANCH_DIRECT_CALL	ACCESS:          0  HIT:          0  MISS:          0
BTB BRANCH_INDIRECT_CALL	ACCESS:          0  HIT:          0  MISS:          0
BTB BRANCH_RETURN	ACCESS:          0  HIT:          0  MISS:          0
BTB BRANCH_OTHER ACCESS:          0  HIT:          0  MISS:          0

L2C TOTAL     ACCESS:    2383609  HIT:    1847536  MISS:     536073  HIT %:      77.51  MISS %:      22.49   MPKI: 10.7215
L2C LOAD      ACCESS:      26929  HIT:      19575  MISS:       7354  HIT %:    72.6912  MISS %:    27.3088   MPKI: 0.14708
L2C DATA LOAD MPKI: 0.14708
L2C INSTRUCTION LOAD MPKI: 0
L2C RFO       ACCESS:     232128  HIT:        356  MISS:     231772  HIT %:   0.153364  MISS %:    99.8466   MPKI: 4.63544
L2C PREFETCH  ACCESS:    1865794  HIT:    1573267  MISS:     292527  HIT %:    84.3216  MISS %:    15.6784   MPKI: 5.85054
L2C DATA PREFETCH MPKI: 5.85054
L2C INSTRUCTION PREFETCH MPKI: 0
L2C WRITEBACK ACCESS:     251140  HIT:     250840  MISS:        300  HIT %:    99.8805  MISS %:   0.119455   MPKI: 0.006
L2C LOAD TRANSLATION ACCESS:       7618  HIT:       3498  MISS:       4120  HIT %:    45.9176  MISS %:    54.0824   MPKI: 0.0824
L2C PREFETCH  REQUESTED:    1790253  ISSUED:    1761276  USEFUL:      14174  USELESS:     278153
L2C USEFUL LOAD PREFETCHES:      14174 PREFETCH ISSUED TO LOWER LEVEL:     292797  ACCURACY: 4.8409
L2C TIMELY PREFETCHES:      14174 LATE PREFETCHES: 270 DROPPED PREFETCHES: 0
L2C PREFETCHES SAME FILL-ORIGIN LEVEL: 253692 DIFFERENT FILL-ORIGIN LEVEL: 0
L2C AVERAGE MISS LATENCY: 549.313 cycles
L2C RQ	ACCESS:     266677	FORWARD:          0	MERGED:          0	TO_CACHE:     266677
L2C WQ	ACCESS:     251140	FORWARD:          0	MERGED:          0	TO_CACHE:     251140
L2C PQ	ACCESS:    2124108	FORWARD:          0	MERGED:     126382	TO_CACHE:    1997726

L2C Instructions Evicting Data 0
L2C Translations Evicting Data 4093
L2C Data Evicting Data 527612
L2C Instructions Evicting Instructions 0
L2C Translations Evicting Instructions 0
L2C Data Evicting Instructions 0
L2C Instructions Evicting Translations 0
L2C Translations Evicting Translations 27
L2C Data Evicting Translations 4041
L2C Dense regions hint from L2: 0
PSCL5 TOTAL     ACCESS:       5040  HIT:       5040  MISS:          0  HIT %:        100  MISS %:          0   MPKI: 0
PSCL5 LOAD TRANSLATION ACCESS:       5040  HIT:       5040  MISS:          0  HIT %:        100  MISS %:          0   MPKI: 0
PSCL5 PREFETCH  REQUESTED:          0  ISSUED:          0  USEFUL:          0  USELESS:          0
PSCL5 USEFUL LOAD PREFETCHES:          0 PREFETCH ISSUED TO LOWER LEVEL:          0  ACCURACY: -nan
PSCL5 TIMELY PREFETCHES:          0 LATE PREFETCHES: 0 DROPPED PREFETCHES: 0
PSCL5 PREFETCHES SAME FILL-ORIGIN LEVEL: 0 DIFFERENT FILL-ORIGIN LEVEL: 0

PSCL4 TOTAL     ACCESS:       5040  HIT:       5040  MISS:          0  HIT %:        100  MISS %:          0   MPKI: 0
PSCL4 LOAD TRANSLATION ACCESS:       5040  HIT:       5040  MISS:          0  HIT %:        100  MISS %:          0   MPKI: 0
PSCL4 PREFETCH  REQUESTED:          0  ISSUED:          0  USEFUL:          0  USELESS:          0
PSCL4 USEFUL LOAD PREFETCHES:          0 PREFETCH ISSUED TO LOWER LEVEL:          0  ACCURACY: -nan
PSCL4 TIMELY PREFETCHES:          0 LATE PREFETCHES: 0 DROPPED PREFETCHES: 0
PSCL4 PREFETCHES SAME FILL-ORIGIN LEVEL: 0 DIFFERENT FILL-ORIGIN LEVEL: 0

PSCL3 TOTAL     ACCESS:       5031  HIT:       4954  MISS:         77  HIT %:    98.4695  MISS %:    1.53051   MPKI: 0.00154
PSCL3 LOAD TRANSLATION ACCESS:       5031  HIT:       4954  MISS:         77  HIT %:    98.4695  MISS %:    1.53051   MPKI: 0.00154
PSCL3 PREFETCH  REQUESTED:          0  ISSUED:          0  USEFUL:          0  USELESS:          0
PSCL3 USEFUL LOAD PREFETCHES:          0 PREFETCH ISSUED TO LOWER LEVEL:          0  ACCURACY: -nan
PSCL3 TIMELY PREFETCHES:          0 LATE PREFETCHES: 0 DROPPED PREFETCHES: 0
PSCL3 PREFETCHES SAME FILL-ORIGIN LEVEL: 0 DIFFERENT FILL-ORIGIN LEVEL: 0

PSCL2 TOTAL     ACCESS:       5040  HIT:       2517  MISS:       2523  HIT %:    49.9405  MISS %:    50.0595   MPKI: 0.05046
PSCL2 LOAD TRANSLATION ACCESS:       5040  HIT:       2517  MISS:       2523  HIT %:    49.9405  MISS %:    50.0595   MPKI: 0.05046
PSCL2 PREFETCH  REQUESTED:          0  ISSUED:          0  USEFUL:          0  USELESS:          0
PSCL2 USEFUL LOAD PREFETCHES:          0 PREFETCH ISSUED TO LOWER LEVEL:          0  ACCURACY: -nan
PSCL2 TIMELY PREFETCHES:          0 LATE PREFETCHES: 0 DROPPED PREFETCHES: 0
PSCL2 PREFETCHES SAME FILL-ORIGIN LEVEL: 0 DIFFERENT FILL-ORIGIN LEVEL: 0

LLC TOTAL     ACCESS:     787699  HIT:     418051  MISS:     369648  HIT %:    53.0724  MISS %:    46.9276   MPKI: 7.39296
LLC LOAD      ACCESS:       7084  HIT:       2493  MISS:       4591  HIT %:     35.192  MISS %:     64.808   MPKI: 0.09182
LLC RFO       ACCESS:     231772  HIT:      36464  MISS:     195308  HIT %:    15.7327  MISS %:    84.2673   MPKI: 3.90616
LLC PREFETCH  ACCESS:     292797  HIT:     127142  MISS:     165655  HIT %:    43.4233  MISS %:    56.5767   MPKI: 3.3131
LLC WRITEBACK ACCESS:     251926  HIT:     251881  MISS:         45  HIT %:    99.9821  MISS %:  0.0178624   MPKI: 0.0009
LLC LOAD TRANSLATION ACCESS:       4120  HIT:         71  MISS:       4049  HIT %:     1.7233  MISS %:    98.2767   MPKI: 0.08098
LLC PREFETCH  REQUESTED:          0  ISSUED:          0  USEFUL:      12132  USELESS:     148871
LLC USEFUL LOAD PREFETCHES:      12132 PREFETCH ISSUED TO LOWER LEVEL:     165655  ACCURACY: 7.32365
LLC TIMELY PREFETCHES:      12132 LATE PREFETCHES: 0 DROPPED PREFETCHES: 0
LLC PREFETCHES SAME FILL-ORIGIN LEVEL: 0 DIFFERENT FILL-ORIGIN LEVEL: 0
LLC AVERAGE MISS LATENCY: 753.484 cycles
LLC RQ	ACCESS:     242978	FORWARD:          0	MERGED:          0	TO_CACHE:     242978
LLC WQ	ACCESS:     251926	FORWARD:          0	MERGED:          0	TO_CACHE:     251926
LLC PQ	ACCESS:     292797	FORWARD:          0	MERGED:          0	TO_CACHE:     292797

LLC Dense regions hint to LLC: 0

RAW hits: 563708
Loads Generated: 17381878
Loads sent to L1D: 16818168
Stores Generated: 4623969
Stores sent to L1D: 4623972
Major fault: 0 Minor fault: 6614
Allocated PAGES: 6614

stream: 
stream:times selected: 518944
stream:pref_filled: 413573
stream:pref_useful: 398651
stream:pref_late: 3970
stream:misses: 9
stream:misses_by_poll: 0

CS: 
CS:times selected: 508443
CS:pref_filled: 268
CS:pref_useful: 267
CS:pref_late: 3
CS:misses: 42658
CS:misses_by_poll: 0

CPLX: 
CPLX:times selected: 10432
CPLX:pref_filled: 137
CPLX:pref_useful: 28
CPLX:pref_late: 0
CPLX:misses: 262
CPLX:misses_by_poll: 0

NL_L1: 
NL:times selected: 7
NL:pref_filled: 3
NL:pref_useful: 3
NL:pref_late: 0
NL:misses: 5
NL:misses_by_poll: 0

total selections: 1037826
total_filled: 358474
total_useful: 345516
total_late: 4374
total_polluted: 0
total_misses_after_warmup: 46796
conflicts: 33345
Degree Incremented Times: 100380
Degree Decremented Times: 0

L1 IP Table Write Accesses: 9927045
L1 IP Table Read Accesses: 9893700
L1 RST Write Accesses: 456114
L1 RST Read Accesses: 912228
L1 CSPT Write Accesses: 456114
L1 CSPT Read Accesses: 484835
L1 RR Filter Tag Write Accesses: 1496124
L1 RR Filter Tag Read Accesses: 102283571
L1 IP Table Tag Write Accesses: 10593743
L1 IP Table Tag Read Accesses: 10593743
L1 RST Tag Write Accesses: 0
L1 RST Tag Read Accesses: 3917560
L1 RR Filter Write Accesses: 0
L1 RR Filter Read Accesses: 3897898
test: 11119
L2 IP Table Read Accesses: 643036
L2 IP Table Write Accesses: 616718
L2 IP Table Tag Read Accesses: 321740
L2 IP Table Tag Write Accesses: 321740

DRAM Statistics
 CHANNEL 0
 RQ ROW_BUFFER_HIT:      65251  ROW_BUFFER_MISS:     304106
 DBUS_CONGESTED:     468352
 WQ ROW_BUFFER_HIT:      83400  ROW_BUFFER_MISS:     140285  FULL:          0

 AVG_CONGESTED_CYCLE: 50
 All warmup complete: 2
Channel 0 Bank busy for read cycles: 0
Channel 0 Bank busy for write cycles: 0
Channel 0
Rank 0
0banks busy for read cycles: 5164533
0banks busy for write cycles: 22338
1banks busy for read cycles: 9920934
1banks busy for write cycles: 3132996
2banks busy for read cycles: 7108521
2banks busy for write cycles: 1851965
3banks busy for read cycles: 2226925
3banks busy for write cycles: 1035139
4banks busy for read cycles: 1039533
4banks busy for write cycles: 711641
5banks busy for read cycles: 1018255
5banks busy for write cycles: 566475
6banks busy for read cycles: 1083625
6banks busy for write cycles: 587359
7banks busy for read cycles: 1821934
7banks busy for write cycles: 991805
8banks busy for read cycles: 6021996
8banks busy for write cycles: 9607997

CPU 0 Branch Prediction Accuracy: 99.7993% MPKI: 0.02604 Average ROB Occupancy at Mispredict: 102.535
Branch types
NOT_BRANCH: 49351064 98.7021%
BRANCH_DIRECT_JUMP: 8 1.6e-05%
BRANCH_INDIRECT: 0 0%
BRANCH_CONDITIONAL: 648608 1.29722%
BRANCH_DIRECT_CALL: 0 0%
BRANCH_INDIRECT_CALL: 0 0%
BRANCH_RETURN: 0 0%
BRANCH_OTHER: 0 0%

@sumon_overall_L1D    345516      4358     12941    358474   2876928   2934408
@Sumon_Early_by_class_L1D    345281       201        25         0
@Sumon_Late_by_class_L1D      3955         3         0         0

@Sumon_Early_by_cycle_L1D     10655      6622      9998     12386     25760    143153     54055     20820     62019        42         6         0
@Sumon_Late_by_cycle_L1D      1571       427       414       447       337       908       244        10         0         0         0         0
@Sumon_Early_stream_L1D     10618      6609      9973     12375     25751    143089     54023     20779     62016        42         6         0
@Sumon_Early_CS_L1D        35         8        17         9         7        54        31        40         0         0         0         0
@Sumon_Early_CPLX_L1D         1         1         6         2         2         8         1         1         3         0         0         0
@Sumon_Late_stream_L1D      1182       425       410       446       336       904       243         9         0         0         0         0
@Sumon_Late_CS_L1D         3         0         0         0         0         0         0         0         0         0         0         0
@Sumon_Late_CPLX_L1D         0         0         0         0         0         0         0         0         0         0         0         0
@sumon_overall_L2C     14174       270    278153    292527   1761276   1790253
@Sumon_Early_by_class_L2C     14118         1         0         0
@Sumon_Late_by_class_L2C       260         0         0         0

@Sumon_Early_by_cycle_L2C       399       295       495      2047       469      8449      1309        70        29       207         7       398
@Sumon_Late_by_cycle_L2C        30        15        22        33        55       109         4         2         0         0         0         0
@Sumon_Early_stream_L2C       398       294       491      2043       458      8446      1300        65        29       199         7       388
@Sumon_Early_CS_L2C         0         0         1         0         0         0         0         0         0         0         0         0
@Sumon_Early_CPLX_L2C         0         0         0         0         0         0         0         0         0         0         0         0
@Sumon_Late_stream_L2C        28        14        22        33        55       107         1         0         0         0         0         0
@Sumon_Late_CS_L2C         0         0         0         0         0         0         0         0         0         0         0         0
@Sumon_Late_CPLX_L2C         0         0         0         0         0         0         0         0         0         0         0         0
DRAM PAGES: 1048576
Allocated PAGES: 6614
