
*** ChampSim Multicore Out-of-Order Simulator ***

Warmup Instructions: 10000000
Simulation Instructions: 50000000
Number of CPUs: 1
LLC sets: 2048
LLC ways: 16
Off-chip DRAM Size: 4096 MB Channels: 1 Width: 64-bit Data Rate: 533 MT/s
CPU 0 runs traces/SPEC2017/654.roms_s-1070B.champsimtrace.xz
.xz
CPU 0 Bimodal branch predictor
BTB has LRU replacement policy
ITLB has LRU replacement policy
DTLB has LRU replacement policy
STLB has LRU replacement policy
L1I has LRU replacement policy
IP Table Entries: 256
L1D has LRU replacement policy
IP_Table L2 entries: 256
L2C has LRU replacement policy
LLC has LRU replacement policy
Heartbeat CPU 0 instructions: 10000002 cycles: 3109880 heartbeat IPC: 3.21556 cumulative IPC: 3.21556 (Simulation time: 0 hr 24 min 23 sec) 

Warmup complete CPU 0 instructions: 10000002 cycles: 3109880 (Simulation time: 0 hr 24 min 23 sec) 

Heartbeat CPU 0 instructions: 20000000 cycles: 18204639 heartbeat IPC: 0.662481 cumulative IPC: 0.662481 (Simulation time: 0 hr 49 min 59 sec) 
Heartbeat CPU 0 instructions: 30000003 cycles: 37933300 heartbeat IPC: 0.506877 cumulative IPC: 0.574326 (Simulation time: 1 hr 19 min 5 sec) 
Heartbeat CPU 0 instructions: 40000003 cycles: 57957615 heartbeat IPC: 0.499393 cumulative IPC: 0.546969 (Simulation time: 1 hr 52 min 11 sec) 
Heartbeat CPU 0 instructions: 50000000 cycles: 70419963 heartbeat IPC: 0.802417 cumulative IPC: 0.594265 (Simulation time: 2 hr 8 min 18 sec) 
Heartbeat CPU 0 instructions: 60000000 cycles: 96176055 heartbeat IPC: 0.388258 cumulative IPC: 0.537252 (Simulation time: 2 hr 26 min 27 sec) 
Finished CPU 0 instructions: 50000002 cycles: 93066177 cumulative IPC: 0.537252 (Simulation time: 2 hr 26 min 27 sec) 

ChampSim completed all CPUs

Region of Interest Statistics

CPU 0 cumulative IPC: 0.537252 instructions: 50000002 cycles: 93066177
ITLB TOTAL     ACCESS:    7687403  HIT:    7687403  MISS:          0  HIT %:        100  MISS %:          0   MPKI: 0
ITLB LOAD TRANSLATION ACCESS:    7687403  HIT:    7687403  MISS:          0  HIT %:        100  MISS %:          0   MPKI: 0
ITLB PREFETCH  REQUESTED:          0  ISSUED:          0  USEFUL:          0  USELESS:          0
ITLB USEFUL LOAD PREFETCHES:          0 PREFETCH ISSUED TO LOWER LEVEL:          0  ACCURACY: -nan
ITLB TIMELY PREFETCHES:          0 LATE PREFETCHES: 0 DROPPED PREFETCHES: 0
ITLB PREFETCHES SAME FILL-ORIGIN LEVEL: 0 DIFFERENT FILL-ORIGIN LEVEL: 0
ITLB AVERAGE MISS LATENCY: -nan cycles
ITLB RQ	ACCESS:    8215232	FORWARD:          0	MERGED:     527830	TO_CACHE:    7687402

DTLB TOTAL     ACCESS:   12817412  HIT:   12793325  MISS:      24087  HIT %:    99.8121  MISS %:   0.187924   MPKI: 0.48174
DTLB LOAD TRANSLATION ACCESS:   12817412  HIT:   12793325  MISS:      24087  HIT %:    99.8121  MISS %:   0.187924   MPKI: 0.48174
DTLB PREFETCH  REQUESTED:          0  ISSUED:          0  USEFUL:          0  USELESS:          0
DTLB USEFUL LOAD PREFETCHES:          0 PREFETCH ISSUED TO LOWER LEVEL:          0  ACCURACY: -nan
DTLB TIMELY PREFETCHES:          0 LATE PREFETCHES: 0 DROPPED PREFETCHES: 0
DTLB PREFETCHES SAME FILL-ORIGIN LEVEL: 0 DIFFERENT FILL-ORIGIN LEVEL: 0
DTLB AVERAGE MISS LATENCY: 565.729 cycles
DTLB RQ	ACCESS:   14145269	FORWARD:          0	MERGED:    1290278	TO_CACHE:   12854991

STLB TOTAL     ACCESS:     742604  HIT:     718531  MISS:      24073  HIT %:    96.7583  MISS %:     3.2417   MPKI: 0.48146
STLB LOAD TRANSLATION ACCESS:      24087  HIT:         14  MISS:      24073  HIT %:  0.0581226  MISS %:    99.9419   MPKI: 0.48146
STLB TRANSLATION FROM L1D PREFETCHER ACCESS:     718517  HIT:     718517  MISS:          0  HIT %:        100  MISS %:          0   MPKI: 0
STLB PREFETCH  REQUESTED:          0  ISSUED:          0  USEFUL:          0  USELESS:          0
STLB USEFUL LOAD PREFETCHES:          0 PREFETCH ISSUED TO LOWER LEVEL:          0  ACCURACY: -nan
STLB TIMELY PREFETCHES:          0 LATE PREFETCHES: 0 DROPPED PREFETCHES: 0
STLB PREFETCHES SAME FILL-ORIGIN LEVEL: 0 DIFFERENT FILL-ORIGIN LEVEL: 0
STLB AVERAGE MISS LATENCY: 554.016 cycles
STLB RQ	ACCESS:    2444831	FORWARD:          0	MERGED:    1702227	TO_CACHE:     742604

STLB Hit, L1D data hit: 0
STLB Hit, L2C data hit: 0
STLB Hit, LLC data hit: 0
STLB Hit, LLC data miss: 0
STLB STLB hints to L2: 0
L1D TOTAL     ACCESS:   13983611  HIT:   12859674  MISS:    1123937  HIT %:    91.9625  MISS %:    8.03753   MPKI: 22.4787
L1D LOAD      ACCESS:   11310076  HIT:   11234559  MISS:      75517  HIT %:    99.3323  MISS %:   0.667697   MPKI: 1.51034
L1D RFO       ACCESS:     433129  HIT:      88744  MISS:     344385  HIT %:     20.489  MISS %:     79.511   MPKI: 6.8877
L1D PREFETCH  ACCESS:    2240406  HIT:    1536371  MISS:     704035  HIT %:    68.5756  MISS %:    31.4244   MPKI: 14.0807
L1D PREFETCH  REQUESTED:    5148543  ISSUED:    4843326  USEFUL:     669106  USELESS:      34934
L1D USEFUL LOAD PREFETCHES:     669106 PREFETCH ISSUED TO LOWER LEVEL:     956902  ACCURACY: 69.9242
L1D TIMELY PREFETCHES:     669106 LATE PREFETCHES: 39466 DROPPED PREFETCHES: 0
L1D PREFETCHES SAME FILL-ORIGIN LEVEL: 956902 DIFFERENT FILL-ORIGIN LEVEL: 0
L1D AVERAGE MISS LATENCY: 1.81748e+06 cycles
L1D RQ	ACCESS:   18807447	FORWARD:          0	MERGED:    7400904	TO_CACHE:   11406543
L1D WQ	ACCESS:    2738726	FORWARD:          0	MERGED:          0	TO_CACHE:    2738726
L1D PQ	ACCESS:    2422582	FORWARD:          0	MERGED:       1838	TO_CACHE:    2420744

L1D UNIQUE REGIONS ACCESSED: 0
L1D REGIONS CONFLICTS: 0
L1D Cross Page Prefetch Requests: 0
L1D Same Page Prefetch Requests: 2718991
L1D ROI Sum of L1D PQ occupancy: 192757102
L1D PREFETCHES PUSHED FROM L2C: 0
L1I TOTAL     ACCESS:    8215233  HIT:    8215233  MISS:          0  HIT %:        100  MISS %:          0   MPKI: 0
L1I LOAD      ACCESS:    8215233  HIT:    8215233  MISS:          0  HIT %:        100  MISS %:          0   MPKI: 0
L1I PREFETCH  REQUESTED:          0  ISSUED:          0  USEFUL:          0  USELESS:          0
L1I USEFUL LOAD PREFETCHES:          0 PREFETCH ISSUED TO LOWER LEVEL:          0  ACCURACY: -nan
L1I TIMELY PREFETCHES:          0 LATE PREFETCHES: 0 DROPPED PREFETCHES: 0
L1I PREFETCHES SAME FILL-ORIGIN LEVEL: 0 DIFFERENT FILL-ORIGIN LEVEL: 0
L1I AVERAGE MISS LATENCY: -nan cycles
L1I RQ	ACCESS:   13310335	FORWARD:          0	MERGED:    5095103	TO_CACHE:    8215232

BTB TOTAL     ACCESS:    2779529  HIT:    2779520  MISS:          9  HIT %:    99.9997  MISS %: 0.000323796   MPKI: 0.00018
BTB BRANCH_DIRECT_JUMP	ACCESS:          0  HIT:          0  MISS:          0
BTB BRANCH_INDIRECT	ACCESS:          0  HIT:          0  MISS:          0
BTB BRANCH_CONDITIONAL	ACCESS:    2779529  HIT:    2779520  MISS:          9
BTB BRANCH_DIRECT_CALL	ACCESS:          0  HIT:          0  MISS:          0
BTB BRANCH_INDIRECT_CALL	ACCESS:          0  HIT:          0  MISS:          0
BTB BRANCH_RETURN	ACCESS:          0  HIT:          0  MISS:          0
BTB BRANCH_OTHER ACCESS:          0  HIT:          0  MISS:          0

L2C TOTAL     ACCESS:    2800214  HIT:    1644805  MISS:    1155409  HIT %:    58.7385  MISS %:    41.2615   MPKI: 23.1082
L2C LOAD      ACCESS:      36051  HIT:      11073  MISS:      24978  HIT %:    30.7148  MISS %:    69.2852   MPKI: 0.49956
L2C DATA LOAD MPKI: 0.49956
L2C INSTRUCTION LOAD MPKI: 0
L2C RFO       ACCESS:     344385  HIT:          0  MISS:     344385  HIT %:          0  MISS %:        100   MPKI: 6.8877
L2C PREFETCH  ACCESS:    2051171  HIT:    1270055  MISS:     781116  HIT %:    61.9185  MISS %:    38.0815   MPKI: 15.6223
L2C DATA PREFETCH MPKI: 15.6223
L2C INSTRUCTION PREFETCH MPKI: 0
L2C WRITEBACK ACCESS:     344510  HIT:     344484  MISS:         26  HIT %:    99.9925  MISS %: 0.00754695   MPKI: 0.00052
L2C LOAD TRANSLATION ACCESS:      24097  HIT:      19193  MISS:       4904  HIT %:    79.6489  MISS %:    20.3511   MPKI: 0.09808
L2C PREFETCH  REQUESTED:    2770253  ISSUED:    2642466  USEFUL:      10561  USELESS:     770469
L2C USEFUL LOAD PREFETCHES:      10561 PREFETCH ISSUED TO LOWER LEVEL:     785515  ACCURACY: 1.34447
L2C TIMELY PREFETCHES:      10561 LATE PREFETCHES: 4398 DROPPED PREFETCHES: 0
L2C PREFETCHES SAME FILL-ORIGIN LEVEL: 680274 DIFFERENT FILL-ORIGIN LEVEL: 0
L2C AVERAGE MISS LATENCY: 1502.64 cycles
L2C RQ	ACCESS:     404534	FORWARD:          0	MERGED:          0	TO_CACHE:     404534
L2C WQ	ACCESS:     344510	FORWARD:          0	MERGED:          0	TO_CACHE:     344510
L2C PQ	ACCESS:    3385967	FORWARD:          0	MERGED:     304568	TO_CACHE:    3081399

L2C Instructions Evicting Data 0
L2C Translations Evicting Data 4859
L2C Data Evicting Data 1145617
L2C Instructions Evicting Instructions 0
L2C Translations Evicting Instructions 0
L2C Data Evicting Instructions 0
L2C Instructions Evicting Translations 0
L2C Translations Evicting Translations 45
L2C Data Evicting Translations 4862
L2C Dense regions hint from L2: 0
PSCL5 TOTAL     ACCESS:      24073  HIT:      24073  MISS:          0  HIT %:        100  MISS %:          0   MPKI: 0
PSCL5 LOAD TRANSLATION ACCESS:      24073  HIT:      24073  MISS:          0  HIT %:        100  MISS %:          0   MPKI: 0
PSCL5 PREFETCH  REQUESTED:          0  ISSUED:          0  USEFUL:          0  USELESS:          0
PSCL5 USEFUL LOAD PREFETCHES:          0 PREFETCH ISSUED TO LOWER LEVEL:          0  ACCURACY: -nan
PSCL5 TIMELY PREFETCHES:          0 LATE PREFETCHES: 0 DROPPED PREFETCHES: 0
PSCL5 PREFETCHES SAME FILL-ORIGIN LEVEL: 0 DIFFERENT FILL-ORIGIN LEVEL: 0

PSCL4 TOTAL     ACCESS:      24073  HIT:      24073  MISS:          0  HIT %:        100  MISS %:          0   MPKI: 0
PSCL4 LOAD TRANSLATION ACCESS:      24073  HIT:      24073  MISS:          0  HIT %:        100  MISS %:          0   MPKI: 0
PSCL4 PREFETCH  REQUESTED:          0  ISSUED:          0  USEFUL:          0  USELESS:          0
PSCL4 USEFUL LOAD PREFETCHES:          0 PREFETCH ISSUED TO LOWER LEVEL:          0  ACCURACY: -nan
PSCL4 TIMELY PREFETCHES:          0 LATE PREFETCHES: 0 DROPPED PREFETCHES: 0
PSCL4 PREFETCHES SAME FILL-ORIGIN LEVEL: 0 DIFFERENT FILL-ORIGIN LEVEL: 0

PSCL3 TOTAL     ACCESS:      24073  HIT:      24073  MISS:          0  HIT %:        100  MISS %:          0   MPKI: 0
PSCL3 LOAD TRANSLATION ACCESS:      24073  HIT:      24073  MISS:          0  HIT %:        100  MISS %:          0   MPKI: 0
PSCL3 PREFETCH  REQUESTED:          0  ISSUED:          0  USEFUL:          0  USELESS:          0
PSCL3 USEFUL LOAD PREFETCHES:          0 PREFETCH ISSUED TO LOWER LEVEL:          0  ACCURACY: -nan
PSCL3 TIMELY PREFETCHES:          0 LATE PREFETCHES: 0 DROPPED PREFETCHES: 0
PSCL3 PREFETCHES SAME FILL-ORIGIN LEVEL: 0 DIFFERENT FILL-ORIGIN LEVEL: 0

PSCL2 TOTAL     ACCESS:      24073  HIT:      24008  MISS:         65  HIT %:      99.73  MISS %:   0.270012   MPKI: 0.0013
PSCL2 LOAD TRANSLATION ACCESS:      24073  HIT:      24008  MISS:         65  HIT %:      99.73  MISS %:   0.270012   MPKI: 0.0013
PSCL2 PREFETCH  REQUESTED:          0  ISSUED:          0  USEFUL:          0  USELESS:          0
PSCL2 USEFUL LOAD PREFETCHES:          0 PREFETCH ISSUED TO LOWER LEVEL:          0  ACCURACY: -nan
PSCL2 TIMELY PREFETCHES:          0 LATE PREFETCHES: 0 DROPPED PREFETCHES: 0
PSCL2 PREFETCHES SAME FILL-ORIGIN LEVEL: 0 DIFFERENT FILL-ORIGIN LEVEL: 0

LLC TOTAL     ACCESS:    1499896  HIT:     344499  MISS:    1155397  HIT %:    22.9682  MISS %:    77.0318   MPKI: 23.1079
LLC LOAD      ACCESS:      20580  HIT:          0  MISS:      20580  HIT %:          0  MISS %:        100   MPKI: 0.4116
LLC RFO       ACCESS:     344385  HIT:          0  MISS:     344385  HIT %:          0  MISS %:        100   MPKI: 6.8877
LLC PREFETCH  ACCESS:     785514  HIT:          0  MISS:     785514  HIT %:          0  MISS %:        100   MPKI: 15.7103
LLC WRITEBACK ACCESS:     344513  HIT:     344487  MISS:         26  HIT %:    99.9925  MISS %: 0.00754689   MPKI: 0.00052
LLC LOAD TRANSLATION ACCESS:       4904  HIT:         12  MISS:       4892  HIT %:   0.244698  MISS %:    99.7553   MPKI: 0.09784
LLC PREFETCH  REQUESTED:          0  ISSUED:          0  USEFUL:          0  USELESS:     785367
LLC USEFUL LOAD PREFETCHES:          0 PREFETCH ISSUED TO LOWER LEVEL:     785515  ACCURACY: 0
LLC TIMELY PREFETCHES:          0 LATE PREFETCHES: 0 DROPPED PREFETCHES: 0
LLC PREFETCHES SAME FILL-ORIGIN LEVEL: 0 DIFFERENT FILL-ORIGIN LEVEL: 0
LLC AVERAGE MISS LATENCY: 1476.64 cycles
LLC RQ	ACCESS:     369870	FORWARD:          0	MERGED:          0	TO_CACHE:     369870
LLC WQ	ACCESS:     344513	FORWARD:          0	MERGED:          0	TO_CACHE:     344513
LLC PQ	ACCESS:     785515	FORWARD:          0	MERGED:          0	TO_CACHE:     785515

LLC Dense regions hint to LLC: 0

RAW hits: 2
Loads Generated: 18807450
Loads sent to L1D: 18807447
Stores Generated: 2738725
Stores sent to L1D: 2738726
Major fault: 0 Minor fault: 15227
Allocated PAGES: 15227

stream: 
stream:times selected: 1850255
stream:pref_filled: 856712
stream:pref_useful: 814631
stream:pref_late: 38661
stream:misses: 159
stream:misses_by_poll: 0

CS: 
CS:times selected: 1773215
CS:pref_filled: 1255
CS:pref_useful: 1203
CS:pref_late: 110
CS:misses: 171254
CS:misses_by_poll: 7

CPLX: 
CPLX:times selected: 76954
CPLX:pref_filled: 571
CPLX:pref_useful: 36
CPLX:pref_late: 22
CPLX:misses: 4888
CPLX:misses_by_poll: 1

NL_L1: 
NL:times selected: 89
NL:pref_filled: 3
NL:pref_useful: 3
NL:pref_late: 0
NL:misses: 2
NL:misses_by_poll: 0

total selections: 3700513
total_filled: 704035
total_useful: 669106
total_late: 39692
total_polluted: 8
total_misses_after_warmup: 171985
conflicts: 22
Degree Incremented Times: 106047
Degree Decremented Times: 9521

L1 IP Table Write Accesses: 11404273
L1 IP Table Read Accesses: 11404251
L1 RST Write Accesses: 1552459
L1 RST Read Accesses: 3104918
L1 CSPT Write Accesses: 1552459
L1 CSPT Read Accesses: 1670898
L1 RR Filter Tag Write Accesses: 2727799
L1 RR Filter Tag Read Accesses: 333969831
L1 IP Table Tag Write Accesses: 11406544
L1 IP Table Tag Read Accesses: 11406544
L1 RST Tag Write Accesses: 0
L1 RST Tag Read Accesses: 14033311
L1 RR Filter Write Accesses: 0
L1 RR Filter Read Accesses: 13181945
test: 40661
L2 IP Table Read Accesses: 985563
L2 IP Table Write Accesses: 949526
L2 IP Table Tag Read Accesses: 492785
L2 IP Table Tag Write Accesses: 492785

DRAM Statistics
 CHANNEL 0
 RQ ROW_BUFFER_HIT:     395492  ROW_BUFFER_MISS:     759879
 DBUS_CONGESTED:    1438723
 WQ ROW_BUFFER_HIT:      32363  ROW_BUFFER_MISS:     312146  FULL:          0

 AVG_CONGESTED_CYCLE: 54
 All warmup complete: 2
Channel 0 Bank busy for read cycles: 0
Channel 0 Bank busy for write cycles: 0
Channel 0
Rank 0
0banks busy for read cycles: 9454
0banks busy for write cycles: 0
1banks busy for read cycles: 1068479
1banks busy for write cycles: 43123
2banks busy for read cycles: 1609480
2banks busy for write cycles: 43120
3banks busy for read cycles: 1763199
3banks busy for write cycles: 43121
4banks busy for read cycles: 2020862
4banks busy for write cycles: 43103
5banks busy for read cycles: 2716902
5banks busy for write cycles: 43070
6banks busy for read cycles: 4129039
6banks busy for write cycles: 44324
7banks busy for read cycles: 9232384
7banks busy for write cycles: 438159
8banks busy for read cycles: 47370042
8banks busy for write cycles: 22448317

CPU 0 Branch Prediction Accuracy: 99.8858% MPKI: 0.06352 Average ROB Occupancy at Mispredict: 231.172
Branch types
NOT_BRANCH: 47219347 94.4387%
BRANCH_DIRECT_JUMP: 0 0%
BRANCH_INDIRECT: 0 0%
BRANCH_CONDITIONAL: 2780656 5.56131%
BRANCH_DIRECT_CALL: 0 0%
BRANCH_INDIRECT_CALL: 0 0%
BRANCH_RETURN: 0 0%
BRANCH_OTHER: 0 0%

@sumon_overall_L1D    669106     39466     34934    704035   4843326   5148543
@Sumon_Early_by_class_L1D    668018      1052        36         0
@Sumon_Late_by_class_L1D     38435       110        22         0

@Sumon_Early_by_cycle_L1D     12332     15736     39616     24789     24490    336326    185821     29732       264         0         0         0
@Sumon_Late_by_cycle_L1D      8064      5938      6048      4096      3395      9420      2486        19         0         0         0         0
@Sumon_Early_stream_L1D     12299     15623     39538     24673     24342    335963    185618     29705       257         0         0         0
@Sumon_Early_CS_L1D        31       112        78       116       148       361       200         6         0         0         0         0
@Sumon_Early_CPLX_L1D         2         1         0         0         0         2         3        21         7         0         0         0
@Sumon_Late_stream_L1D      7148      5917      6022      4081      3383      9387      2478        19         0         0         0         0
@Sumon_Late_CS_L1D        15        18        19        15        11        24         8         0         0         0         0         0
@Sumon_Late_CPLX_L1D         2         3         7         0         1         9         0         0         0         0         0         0
@sumon_overall_L2C     10561      4398    770469    781116   2642466   2770253
@Sumon_Early_by_class_L2C     10556         5         0         0
@Sumon_Late_by_class_L2C      4394         2         0         0

@Sumon_Early_by_cycle_L2C       179       582      1116      1108      1045      4769      1539       220         3         0         0         0
@Sumon_Late_by_cycle_L2C       341       340       551       390       670      1797       307         2         0         0         0         0
@Sumon_Early_stream_L2C       179       581      1115      1107      1045      4767      1539       220         3         0         0         0
@Sumon_Early_CS_L2C         0         1         1         1         0         2         0         0         0         0         0         0
@Sumon_Early_CPLX_L2C         0         0         0         0         0         0         0         0         0         0         0         0
@Sumon_Late_stream_L2C       339       340       551       390       670      1796       306         2         0         0         0         0
@Sumon_Late_CS_L2C         0         0         0         0         0         1         1         0         0         0         0         0
@Sumon_Late_CPLX_L2C         0         0         0         0         0         0         0         0         0         0         0         0
DRAM PAGES: 1048576
Allocated PAGES: 15227
