
*** ChampSim Multicore Out-of-Order Simulator ***

Warmup Instructions: 10000000
Simulation Instructions: 50000000
Number of CPUs: 1
LLC sets: 2048
LLC ways: 16
Off-chip DRAM Size: 4096 MB Channels: 1 Width: 64-bit Data Rate: 533 MT/s
CPU 0 runs traces/SPEC2017/654.roms_s-1613B.champsimtrace.xz
.xz
CPU 0 Bimodal branch predictor
BTB has LRU replacement policy
ITLB has LRU replacement policy
DTLB has LRU replacement policy
STLB has LRU replacement policy
L1I has LRU replacement policy
IP Table Entries: 256
L1D has LRU replacement policy
IP_Table L2 entries: 256
L2C has LRU replacement policy
LLC has LRU replacement policy
Heartbeat CPU 0 instructions: 10000001 cycles: 2910541 heartbeat IPC: 3.43579 cumulative IPC: 3.43579 (Simulation time: 0 hr 20 min 8 sec) 

Warmup complete CPU 0 instructions: 10000001 cycles: 2910541 (Simulation time: 0 hr 20 min 8 sec) 

Heartbeat CPU 0 instructions: 20000003 cycles: 19553808 heartbeat IPC: 0.600844 cumulative IPC: 0.600844 (Simulation time: 0 hr 37 min 0 sec) 
Heartbeat CPU 0 instructions: 30000003 cycles: 36196756 heartbeat IPC: 0.600855 cumulative IPC: 0.600849 (Simulation time: 0 hr 53 min 50 sec) 
Heartbeat CPU 0 instructions: 40000000 cycles: 52843966 heartbeat IPC: 0.600701 cumulative IPC: 0.6008 (Simulation time: 1 hr 10 min 42 sec) 
Heartbeat CPU 0 instructions: 50000001 cycles: 81195123 heartbeat IPC: 0.352719 cumulative IPC: 0.510956 (Simulation time: 1 hr 36 min 32 sec) 
Heartbeat CPU 0 instructions: 60000001 cycles: 97872613 heartbeat IPC: 0.599611 cumulative IPC: 0.526526 (Simulation time: 1 hr 52 min 25 sec) 
Finished CPU 0 instructions: 50000000 cycles: 94962072 cumulative IPC: 0.526526 (Simulation time: 1 hr 52 min 25 sec) 

ChampSim completed all CPUs

Region of Interest Statistics

CPU 0 cumulative IPC: 0.526526 instructions: 50000000 cycles: 94962072
ITLB TOTAL     ACCESS:    7749709  HIT:    7749694  MISS:         15  HIT %:    99.9998  MISS %: 0.000193556   MPKI: 0.0003
ITLB LOAD TRANSLATION ACCESS:    7749709  HIT:    7749694  MISS:         15  HIT %:    99.9998  MISS %: 0.000193556   MPKI: 0.0003
ITLB PREFETCH  REQUESTED:          0  ISSUED:          0  USEFUL:          0  USELESS:          0
ITLB USEFUL LOAD PREFETCHES:          0 PREFETCH ISSUED TO LOWER LEVEL:          0  ACCURACY: -nan
ITLB TIMELY PREFETCHES:          0 LATE PREFETCHES: 0 DROPPED PREFETCHES: 0
ITLB PREFETCHES SAME FILL-ORIGIN LEVEL: 0 DIFFERENT FILL-ORIGIN LEVEL: 0
ITLB AVERAGE MISS LATENCY: 306.6 cycles
ITLB RQ	ACCESS:   10007857	FORWARD:          0	MERGED:    2258148	TO_CACHE:    7749709

DTLB TOTAL     ACCESS:   10597758  HIT:   10592921  MISS:       4837  HIT %:    99.9544  MISS %:  0.0456417   MPKI: 0.09674
DTLB LOAD TRANSLATION ACCESS:   10597758  HIT:   10592921  MISS:       4837  HIT %:    99.9544  MISS %:  0.0456417   MPKI: 0.09674
DTLB PREFETCH  REQUESTED:          0  ISSUED:          0  USEFUL:          0  USELESS:          0
DTLB USEFUL LOAD PREFETCHES:          0 PREFETCH ISSUED TO LOWER LEVEL:          0  ACCURACY: -nan
DTLB TIMELY PREFETCHES:          0 LATE PREFETCHES: 0 DROPPED PREFETCHES: 0
DTLB PREFETCHES SAME FILL-ORIGIN LEVEL: 0 DIFFERENT FILL-ORIGIN LEVEL: 0
DTLB AVERAGE MISS LATENCY: 277.669 cycles
DTLB RQ	ACCESS:   12633782	FORWARD:          0	MERGED:    2028456	TO_CACHE:   10605326

STLB TOTAL     ACCESS:     297409  HIT:     292849  MISS:       4560  HIT %:    98.4668  MISS %:    1.53324   MPKI: 0.0912
STLB LOAD TRANSLATION ACCESS:       4852  HIT:        293  MISS:       4559  HIT %:    6.03875  MISS %:    93.9613   MPKI: 0.09118
STLB TRANSLATION FROM L1D PREFETCHER ACCESS:     292557  HIT:     292556  MISS:          1  HIT %:    99.9997  MISS %: 0.000341814   MPKI: 2e-05
STLB PREFETCH  REQUESTED:          0  ISSUED:          0  USEFUL:          1  USELESS:          0
STLB USEFUL LOAD PREFETCHES:          1 PREFETCH ISSUED TO LOWER LEVEL:          0  ACCURACY: inf
STLB TIMELY PREFETCHES:          1 LATE PREFETCHES: 0 DROPPED PREFETCHES: 0
STLB PREFETCHES SAME FILL-ORIGIN LEVEL: 0 DIFFERENT FILL-ORIGIN LEVEL: 0
STLB AVERAGE MISS LATENCY: 285.951 cycles
STLB RQ	ACCESS:    1285020	FORWARD:          0	MERGED:     987610	TO_CACHE:     297410

STLB Hit, L1D data hit: 0
STLB Hit, L2C data hit: 0
STLB Hit, LLC data hit: 0
STLB Hit, LLC data miss: 0
STLB STLB hints to L2: 0
L1D TOTAL     ACCESS:   13409016  HIT:   13178460  MISS:     230556  HIT %:    98.2806  MISS %:    1.71941   MPKI: 4.61112
L1D LOAD      ACCESS:    7389324  HIT:    7365055  MISS:      24269  HIT %:    99.6716  MISS %:   0.328433   MPKI: 0.48538
L1D RFO       ACCESS:    4760191  HIT:    4671705  MISS:      88486  HIT %:    98.1411  MISS %:    1.85887   MPKI: 1.76972
L1D PREFETCH  ACCESS:    1259501  HIT:    1141700  MISS:     117801  HIT %:     90.647  MISS %:    9.35299   MPKI: 2.35602
L1D PREFETCH  REQUESTED:    2560892  ISSUED:    2560340  USEFUL:     108734  USELESS:       9082
L1D USEFUL LOAD PREFETCHES:     108734 PREFETCH ISSUED TO LOWER LEVEL:     136348  ACCURACY: 79.7474
L1D TIMELY PREFETCHES:     108734 LATE PREFETCHES: 18531 DROPPED PREFETCHES: 0
L1D PREFETCHES SAME FILL-ORIGIN LEVEL: 136348 DIFFERENT FILL-ORIGIN LEVEL: 0
L1D AVERAGE MISS LATENCY: 5.28383e+06 cycles
L1D RQ	ACCESS:   10183691	FORWARD:          0	MERGED:    2759235	TO_CACHE:    7418258
L1D WQ	ACCESS:    5563751	FORWARD:       6202	MERGED:     348227	TO_CACHE:    5215524
L1D PQ	ACCESS:    1280172	FORWARD:          0	MERGED:          0	TO_CACHE:    1280168

L1D UNIQUE REGIONS ACCESSED: 0
L1D REGIONS CONFLICTS: 0
L1D Cross Page Prefetch Requests: 0
L1D Same Page Prefetch Requests: 1565151
L1D ROI Sum of L1D PQ occupancy: 30504288
L1D PREFETCHES PUSHED FROM L2C: 0
L1I TOTAL     ACCESS:   10007809  HIT:   10007632  MISS:        177  HIT %:    99.9982  MISS %: 0.00176862   MPKI: 0.00354
L1I LOAD      ACCESS:   10007809  HIT:   10007632  MISS:        177  HIT %:    99.9982  MISS %: 0.00176862   MPKI: 0.00354
L1I PREFETCH  REQUESTED:          0  ISSUED:          0  USEFUL:          0  USELESS:          0
L1I USEFUL LOAD PREFETCHES:          0 PREFETCH ISSUED TO LOWER LEVEL:          0  ACCURACY: -nan
L1I TIMELY PREFETCHES:          0 LATE PREFETCHES: 0 DROPPED PREFETCHES: 0
L1I PREFETCHES SAME FILL-ORIGIN LEVEL: 0 DIFFERENT FILL-ORIGIN LEVEL: 0
L1I AVERAGE MISS LATENCY: 267.864 cycles
L1I RQ	ACCESS:   14526640	FORWARD:          0	MERGED:    4518783	TO_CACHE:   10007857

BTB TOTAL     ACCESS:    3115019  HIT:    2767458  MISS:     347561  HIT %:    88.8424  MISS %:    11.1576   MPKI: 6.95122
BTB BRANCH_DIRECT_JUMP	ACCESS:     347719  HIT:     347681  MISS:         38
BTB BRANCH_INDIRECT	ACCESS:         16  HIT:         15  MISS:          1
BTB BRANCH_CONDITIONAL	ACCESS:    1377020  HIT:    1376893  MISS:        127
BTB BRANCH_DIRECT_CALL	ACCESS:     695131  HIT:     695086  MISS:         45
BTB BRANCH_INDIRECT_CALL	ACCESS:          0  HIT:          0  MISS:          0
BTB BRANCH_RETURN	ACCESS:     695133  HIT:     347783  MISS:     347350
BTB BRANCH_OTHER ACCESS:          0  HIT:          0  MISS:          0

L2C TOTAL     ACCESS:     542930  HIT:     305590  MISS:     237340  HIT %:    56.2853  MISS %:    43.7147   MPKI: 4.7468
L2C LOAD      ACCESS:       5915  HIT:        273  MISS:       5642  HIT %:    4.61538  MISS %:    95.3846   MPKI: 0.11284
L2C DATA LOAD MPKI: 0.1093
L2C INSTRUCTION LOAD MPKI: 0.00354
L2C RFO       ACCESS:      88486  HIT:         15  MISS:      88471  HIT %:  0.0169518  MISS %:     99.983   MPKI: 1.76942
L2C PREFETCH  ACCESS:     355449  HIT:     213322  MISS:     142127  HIT %:    60.0148  MISS %:    39.9852   MPKI: 2.84254
L2C DATA PREFETCH MPKI: 2.84254
L2C INSTRUCTION PREFETCH MPKI: 0
L2C WRITEBACK ACCESS:      88520  HIT:      88320  MISS:        200  HIT %:    99.7741  MISS %:   0.225938   MPKI: 0.004
L2C LOAD TRANSLATION ACCESS:       4559  HIT:       3659  MISS:        900  HIT %:    80.2588  MISS %:    19.7412   MPKI: 0.018
L2C TRANSLATION FROM L1D PREFETCHER ACCESS:          1  HIT:          1  MISS:          0  HIT %:        100  MISS %:          0   MPKI: 0
L2C PREFETCH  REQUESTED:     381888  ISSUED:     381876  USEFUL:        287  USELESS:     141044
L2C USEFUL LOAD PREFETCHES:        287 PREFETCH ISSUED TO LOWER LEVEL:     142676  ACCURACY: 0.201155
L2C TIMELY PREFETCHES:        287 LATE PREFETCHES: 549 DROPPED PREFETCHES: 0
L2C PREFETCHES SAME FILL-ORIGIN LEVEL: 116709 DIFFERENT FILL-ORIGIN LEVEL: 0
L2C AVERAGE MISS LATENCY: 946.641 cycles
L2C RQ	ACCESS:      98961	FORWARD:          0	MERGED:          0	TO_CACHE:      98961
L2C WQ	ACCESS:      88520	FORWARD:          0	MERGED:          0	TO_CACHE:      88520
L2C PQ	ACCESS:     518208	FORWARD:          0	MERGED:      51779	TO_CACHE:     466429

L2C Instructions Evicting Data 175
L2C Translations Evicting Data 893
L2C Data Evicting Data 234965
L2C Instructions Evicting Instructions 0
L2C Translations Evicting Instructions 2
L2C Data Evicting Instructions 111
L2C Instructions Evicting Translations 2
L2C Translations Evicting Translations 4
L2C Data Evicting Translations 902
L2C Dense regions hint from L2: 0
PSCL5 TOTAL     ACCESS:       4560  HIT:       4560  MISS:          0  HIT %:        100  MISS %:          0   MPKI: 0
PSCL5 LOAD TRANSLATION ACCESS:       4559  HIT:       4559  MISS:          0  HIT %:        100  MISS %:          0   MPKI: 0
PSCL5 TRANSLATION FROM L1D PREFETCHER ACCESS:          1  HIT:          1  MISS:          0  HIT %:        100  MISS %:          0   MPKI: 0
PSCL5 PREFETCH  REQUESTED:          0  ISSUED:          0  USEFUL:          0  USELESS:          0
PSCL5 USEFUL LOAD PREFETCHES:          0 PREFETCH ISSUED TO LOWER LEVEL:          0  ACCURACY: -nan
PSCL5 TIMELY PREFETCHES:          0 LATE PREFETCHES: 0 DROPPED PREFETCHES: 0
PSCL5 PREFETCHES SAME FILL-ORIGIN LEVEL: 0 DIFFERENT FILL-ORIGIN LEVEL: 0

PSCL4 TOTAL     ACCESS:       4560  HIT:       4560  MISS:          0  HIT %:        100  MISS %:          0   MPKI: 0
PSCL4 LOAD TRANSLATION ACCESS:       4559  HIT:       4559  MISS:          0  HIT %:        100  MISS %:          0   MPKI: 0
PSCL4 TRANSLATION FROM L1D PREFETCHER ACCESS:          1  HIT:          1  MISS:          0  HIT %:        100  MISS %:          0   MPKI: 0
PSCL4 PREFETCH  REQUESTED:          0  ISSUED:          0  USEFUL:          0  USELESS:          0
PSCL4 USEFUL LOAD PREFETCHES:          0 PREFETCH ISSUED TO LOWER LEVEL:          0  ACCURACY: -nan
PSCL4 TIMELY PREFETCHES:          0 LATE PREFETCHES: 0 DROPPED PREFETCHES: 0
PSCL4 PREFETCHES SAME FILL-ORIGIN LEVEL: 0 DIFFERENT FILL-ORIGIN LEVEL: 0

PSCL3 TOTAL     ACCESS:       4560  HIT:       4558  MISS:          2  HIT %:    99.9561  MISS %:  0.0438596   MPKI: 4e-05
PSCL3 LOAD TRANSLATION ACCESS:       4559  HIT:       4557  MISS:          2  HIT %:    99.9561  MISS %:  0.0438693   MPKI: 4e-05
PSCL3 TRANSLATION FROM L1D PREFETCHER ACCESS:          1  HIT:          1  MISS:          0  HIT %:        100  MISS %:          0   MPKI: 0
PSCL3 PREFETCH  REQUESTED:          0  ISSUED:          0  USEFUL:          0  USELESS:          0
PSCL3 USEFUL LOAD PREFETCHES:          0 PREFETCH ISSUED TO LOWER LEVEL:          0  ACCURACY: -nan
PSCL3 TIMELY PREFETCHES:          0 LATE PREFETCHES: 0 DROPPED PREFETCHES: 0
PSCL3 PREFETCHES SAME FILL-ORIGIN LEVEL: 0 DIFFERENT FILL-ORIGIN LEVEL: 0

PSCL2 TOTAL     ACCESS:       4560  HIT:       4545  MISS:         15  HIT %:    99.6711  MISS %:   0.328947   MPKI: 0.0003
PSCL2 LOAD TRANSLATION ACCESS:       4559  HIT:       4544  MISS:         15  HIT %:     99.671  MISS %:    0.32902   MPKI: 0.0003
PSCL2 TRANSLATION FROM L1D PREFETCHER ACCESS:          1  HIT:          1  MISS:          0  HIT %:        100  MISS %:          0   MPKI: 0
PSCL2 PREFETCH  REQUESTED:          0  ISSUED:          0  USEFUL:          0  USELESS:          0
PSCL2 USEFUL LOAD PREFETCHES:          0 PREFETCH ISSUED TO LOWER LEVEL:          0  ACCURACY: -nan
PSCL2 TIMELY PREFETCHES:          0 LATE PREFETCHES: 0 DROPPED PREFETCHES: 0
PSCL2 PREFETCHES SAME FILL-ORIGIN LEVEL: 0 DIFFERENT FILL-ORIGIN LEVEL: 0

LLC TOTAL     ACCESS:     326450  HIT:      89180  MISS:     237270  HIT %:    27.3181  MISS %:    72.6819   MPKI: 4.7454
LLC LOAD      ACCESS:       5093  HIT:          3  MISS:       5090  HIT %:  0.0589044  MISS %:    99.9411   MPKI: 0.1018
LLC RFO       ACCESS:      88471  HIT:          1  MISS:      88470  HIT %: 0.00113031  MISS %:    99.9989   MPKI: 1.7694
LLC PREFETCH  ACCESS:     142676  HIT:         60  MISS:     142616  HIT %:  0.0420533  MISS %:    99.9579   MPKI: 2.85232
LLC WRITEBACK ACCESS:      89310  HIT:      89110  MISS:        200  HIT %:    99.7761  MISS %:   0.223939   MPKI: 0.004
LLC LOAD TRANSLATION ACCESS:        900  HIT:          6  MISS:        894  HIT %:   0.666667  MISS %:    99.3333   MPKI: 0.01788
LLC PREFETCH  REQUESTED:          0  ISSUED:          0  USEFUL:          2  USELESS:     129252
LLC USEFUL LOAD PREFETCHES:          2 PREFETCH ISSUED TO LOWER LEVEL:     142616  ACCURACY: 0.00140237
LLC TIMELY PREFETCHES:          2 LATE PREFETCHES: 0 DROPPED PREFETCHES: 0
LLC PREFETCHES SAME FILL-ORIGIN LEVEL: 0 DIFFERENT FILL-ORIGIN LEVEL: 0
LLC AVERAGE MISS LATENCY: 916.664 cycles
LLC RQ	ACCESS:      94464	FORWARD:          0	MERGED:          0	TO_CACHE:      94464
LLC WQ	ACCESS:      89310	FORWARD:          0	MERGED:          0	TO_CACHE:      89310
LLC PQ	ACCESS:     142676	FORWARD:          0	MERGED:          0	TO_CACHE:     142676

LLC Dense regions hint to LLC: 0

RAW hits: 1383386
Loads Generated: 11567078
Loads sent to L1D: 10183691
Stores Generated: 5563751
Stores sent to L1D: 5563751
Major fault: 0 Minor fault: 4303
Allocated PAGES: 4303

stream: 
stream:times selected: 1119957
stream:pref_filled: 119990
stream:pref_useful: 110873
stream:pref_late: 18126
stream:misses: 239
stream:misses_by_poll: 0

CS: 
CS:times selected: 225300
CS:pref_filled: 4829
CS:pref_useful: 4722
CS:pref_late: 19
CS:misses: 44669
CS:misses_by_poll: 13

CPLX: 
CPLX:times selected: 894566
CPLX:pref_filled: 345
CPLX:pref_useful: 34
CPLX:pref_late: 21
CPLX:misses: 8493
CPLX:misses_by_poll: 1

NL_L1: 
NL:times selected: 17
NL:pref_filled: 3
NL:pref_useful: 3
NL:pref_late: 0
NL:misses: 9
NL:misses_by_poll: 0

total selections: 2239840
total_filled: 117801
total_useful: 108734
total_late: 18534
total_polluted: 14
total_misses_after_warmup: 53202
conflicts: 390
Degree Incremented Times: 54978
Degree Decremented Times: 20466

L1 IP Table Write Accesses: 7069949
L1 IP Table Read Accesses: 7069559
L1 RST Write Accesses: 899392
L1 RST Read Accesses: 1798784
L1 CSPT Write Accesses: 899392
L1 CSPT Read Accesses: 2668566
L1 RR Filter Tag Write Accesses: 1280724
L1 RR Filter Tag Read Accesses: 153118089
L1 IP Table Tag Write Accesses: 7418257
L1 IP Table Tag Read Accesses: 7418257
L1 RST Tag Write Accesses: 0
L1 RST Tag Read Accesses: 9133934
L1 RR Filter Write Accesses: 0
L1 RR Filter Read Accesses: 7034828
test: 469997
L2 IP Table Read Accesses: 140031
L2 IP Table Write Accesses: 134433
L2 IP Table Tag Read Accesses: 70057
L2 IP Table Tag Write Accesses: 70057

DRAM Statistics
 CHANNEL 0
 RQ ROW_BUFFER_HIT:     107326  ROW_BUFFER_MISS:     129744
 DBUS_CONGESTED:     251047
 WQ ROW_BUFFER_HIT:       9801  ROW_BUFFER_MISS:      72848  FULL:          0

 AVG_CONGESTED_CYCLE: 53
 All warmup complete: 2
Channel 0 Bank busy for read cycles: 0
Channel 0 Bank busy for write cycles: 0
Channel 0
Rank 0
0banks busy for read cycles: 72280796
0banks busy for write cycles: 9372
1banks busy for read cycles: 4751047
1banks busy for write cycles: 1400041
2banks busy for read cycles: 631776
2banks busy for write cycles: 76432
3banks busy for read cycles: 479892
3banks busy for write cycles: 59283
4banks busy for read cycles: 482716
4banks busy for write cycles: 56482
5banks busy for read cycles: 644795
5banks busy for write cycles: 51526
6banks busy for read cycles: 964641
6banks busy for write cycles: 58519
7banks busy for read cycles: 1557904
7banks busy for write cycles: 138459
8banks busy for read cycles: 6696871
8banks busy for write cycles: 4621521

CPU 0 Branch Prediction Accuracy: 99.9515% MPKI: 0.04976 Average ROB Occupancy at Mispredict: 56.6628
Branch types
NOT_BRANCH: 44864579 89.7292%
BRANCH_DIRECT_JUMP: 347719 0.695438%
BRANCH_INDIRECT: 16 3.2e-05%
BRANCH_CONDITIONAL: 3397101 6.7942%
BRANCH_DIRECT_CALL: 695131 1.39026%
BRANCH_INDIRECT_CALL: 0 0%
BRANCH_RETURN: 695133 1.39027%
BRANCH_OTHER: 0 0%

@sumon_overall_L1D    108734     18531      9082    117801   2560340   2560892
@Sumon_Early_by_class_L1D    104675      4025        34         0
@Sumon_Late_by_class_L1D     18125        17        21         0

@Sumon_Early_by_cycle_L1D      5024      9451     15525     13364     17966     23136      3077       382      4492     16287         2        28
@Sumon_Late_by_cycle_L1D      5397      3351      3033      1760      1185      3265       540         0         0         0         0         0
@Sumon_Early_stream_L1D      4974      9425     15468     13329     17072     23120      3075       346      1554     16287         2        23
@Sumon_Early_CS_L1D        33        22        53        33       893        15         2        36      2938         0         0         0
@Sumon_Early_CPLX_L1D        17         4         4         2         1         1         0         0         0         0         0         5
@Sumon_Late_stream_L1D      5027      3341      3024      1755      1183      3256       539         0         0         0         0         0
@Sumon_Late_CS_L1D         3         7         3         2         0         2         0         0         0         0         0         0
@Sumon_Late_CPLX_L1D         1         1         6         3         2         7         1         0         0         0         0         0
@sumon_overall_L2C       287       549    141044    142127    381876    381888
@Sumon_Early_by_class_L2C       272         7         5         0
@Sumon_Late_by_class_L2C       546         2         0         0

@Sumon_Early_by_cycle_L2C        15        20        34        20         7        21        25         7         4       114         0        20
@Sumon_Late_by_cycle_L2C        17        26        41        93        52       292        28         0         0         0         0         0
@Sumon_Early_stream_L2C        14        19        34        20         7        20        25         7         2       109         0        15
@Sumon_Early_CS_L2C         0         1         0         0         0         0         0         0         1         5         0         0
@Sumon_Early_CPLX_L2C         0         0         0         0         0         0         0         0         0         0         0         5
@Sumon_Late_stream_L2C        16        24        41        93        52       292        28         0         0         0         0         0
@Sumon_Late_CS_L2C         0         2         0         0         0         0         0         0         0         0         0         0
@Sumon_Late_CPLX_L2C         0         0         0         0         0         0         0         0         0         0         0         0
DRAM PAGES: 1048576
Allocated PAGES: 4303
