Initialize SIGNATURE TABLE
ST_SET: 1
ST_WAY: 256
ST_TAG_BIT: 16
ST_TAG_MASK: ffff

Initialize PATTERN TABLE
PT_SET: 512
PT_WAY: 4
SIG_DELTA_BIT: 7
C_SIG_BIT: 4
C_DELTA_BIT: 4

Initialize PREFETCH FILTER
FILTER_SET: 1024

*** ChampSim Multicore Out-of-Order Simulator ***

Warmup Instructions: 10000000
Simulation Instructions: 50000000
Number of CPUs: 1
LLC sets: 2048
LLC ways: 16
Off-chip DRAM Size: 4096 MB Channels: 1 Width: 64-bit Data Rate: 6400 MT/s
CPU 0 runs traces/clientserver/client_007.champsimtrace.xz
.xz
CPU 0 Bimodal branch predictor
BTB has LRU replacement policy
ITLB has LRU replacement policy
DTLB has LRU replacement policy
STLB has LRU replacement policy
L1I has LRU replacement policy
L1D has LRU replacement policy
ST_WAYS: 256
PT_SETS: 512
L2C has LRU replacement policy
LLC has LRU replacement policy
Heartbeat CPU 0 instructions: 10000003 cycles: 3032972 heartbeat IPC: 3.2971 cumulative IPC: 3.2971 (Simulation time: 0 hr 10 min 19 sec) 

Warmup complete CPU 0 instructions: 10000003 cycles: 3032972 (Simulation time: 0 hr 10 min 19 sec) 

Heartbeat CPU 0 instructions: 20000003 cycles: 20205658 heartbeat IPC: 0.58232 cumulative IPC: 0.58232 (Simulation time: 0 hr 26 min 2 sec) 
Heartbeat CPU 0 instructions: 30000001 cycles: 36320479 heartbeat IPC: 0.620547 cumulative IPC: 0.600826 (Simulation time: 0 hr 43 min 22 sec) 
Heartbeat CPU 0 instructions: 40000003 cycles: 52804066 heartbeat IPC: 0.606664 cumulative IPC: 0.602759 (Simulation time: 1 hr 1 min 43 sec) 
Heartbeat CPU 0 instructions: 50000001 cycles: 69943087 heartbeat IPC: 0.583464 cumulative IPC: 0.597817 (Simulation time: 1 hr 17 min 43 sec) 
Heartbeat CPU 0 instructions: 60000003 cycles: 85821119 heartbeat IPC: 0.629801 cumulative IPC: 0.603951 (Simulation time: 1 hr 32 min 11 sec) 
Finished CPU 0 instructions: 50000000 cycles: 82788147 cumulative IPC: 0.603951 (Simulation time: 1 hr 32 min 11 sec) 

ChampSim completed all CPUs

Region of Interest Statistics

CPU 0 cumulative IPC: 0.603951 instructions: 50000000 cycles: 82788147
ITLB TOTAL     ACCESS:    8187651  HIT:    8036310  MISS:     151341  HIT %:    98.1516  MISS %:    1.84841   MPKI: 3.02682
ITLB LOAD TRANSLATION ACCESS:    8187651  HIT:    8036310  MISS:     151341  HIT %:    98.1516  MISS %:    1.84841   MPKI: 3.02682
ITLB PREFETCH  REQUESTED:          0  ISSUED:          0  USEFUL:          0  USELESS:          0
ITLB USEFUL LOAD PREFETCHES:          0 PREFETCH ISSUED TO LOWER LEVEL:          0  ACCURACY: -nan
ITLB TIMELY PREFETCHES:          0 LATE PREFETCHES: 0 DROPPED PREFETCHES: 0
ITLB PREFETCHES SAME FILL-ORIGIN LEVEL: 0 DIFFERENT FILL-ORIGIN LEVEL: 0
ITLB AVERAGE MISS LATENCY: 9.81718 cycles
ITLB RQ	ACCESS:    9759787	FORWARD:          0	MERGED:    1546637	TO_CACHE:    8213150

DTLB TOTAL     ACCESS:   13008205  HIT:   12685182  MISS:     323023  HIT %:    97.5168  MISS %:    2.48323   MPKI: 6.46046
DTLB LOAD TRANSLATION ACCESS:   13008205  HIT:   12685182  MISS:     323023  HIT %:    97.5168  MISS %:    2.48323   MPKI: 6.46046
DTLB PREFETCH  REQUESTED:          0  ISSUED:          0  USEFUL:          0  USELESS:          0
DTLB USEFUL LOAD PREFETCHES:          0 PREFETCH ISSUED TO LOWER LEVEL:          0  ACCURACY: -nan
DTLB TIMELY PREFETCHES:          0 LATE PREFETCHES: 0 DROPPED PREFETCHES: 0
DTLB PREFETCHES SAME FILL-ORIGIN LEVEL: 0 DIFFERENT FILL-ORIGIN LEVEL: 0
DTLB AVERAGE MISS LATENCY: 10.3592 cycles
DTLB RQ	ACCESS:   15103805	FORWARD:          0	MERGED:    2081529	TO_CACHE:   13022276

STLB TOTAL     ACCESS:     474364  HIT:     470603  MISS:       3761  HIT %:    99.2071  MISS %:   0.792851   MPKI: 0.07522
STLB LOAD TRANSLATION ACCESS:     474364  HIT:     470603  MISS:       3761  HIT %:    99.2071  MISS %:   0.792851   MPKI: 0.07522
STLB PREFETCH  REQUESTED:          0  ISSUED:          0  USEFUL:          0  USELESS:          0
STLB USEFUL LOAD PREFETCHES:          0 PREFETCH ISSUED TO LOWER LEVEL:          0  ACCURACY: -nan
STLB TIMELY PREFETCHES:          0 LATE PREFETCHES: 0 DROPPED PREFETCHES: 0
STLB PREFETCHES SAME FILL-ORIGIN LEVEL: 0 DIFFERENT FILL-ORIGIN LEVEL: 0
STLB AVERAGE MISS LATENCY: 147.145 cycles
STLB RQ	ACCESS:     474364	FORWARD:          0	MERGED:          0	TO_CACHE:     474364

STLB Hit, L1D data hit: 0
STLB Hit, L2C data hit: 0
STLB Hit, LLC data hit: 0
STLB Hit, LLC data miss: 0
STLB STLB hints to L2: 0
L1D TOTAL     ACCESS:   14926907  HIT:   14182150  MISS:     744757  HIT %:    95.0106  MISS %:    4.98936   MPKI: 14.8951
L1D LOAD      ACCESS:   10885597  HIT:   10227680  MISS:     657917  HIT %:    93.9561  MISS %:    6.04392   MPKI: 13.1583
L1D RFO       ACCESS:    4041310  HIT:    3954470  MISS:      86840  HIT %:    97.8512  MISS %:    2.14881   MPKI: 1.7368
L1D PREFETCH  REQUESTED:          0  ISSUED:          0  USEFUL:          0  USELESS:          0
L1D USEFUL LOAD PREFETCHES:          0 PREFETCH ISSUED TO LOWER LEVEL:          0  ACCURACY: -nan
L1D TIMELY PREFETCHES:          0 LATE PREFETCHES: 0 DROPPED PREFETCHES: 0
L1D PREFETCHES SAME FILL-ORIGIN LEVEL: 0 DIFFERENT FILL-ORIGIN LEVEL: 0
L1D AVERAGE MISS LATENCY: 34.0339 cycles
L1D RQ	ACCESS:   14199028	FORWARD:          0	MERGED:    3194424	TO_CACHE:   10928414
L1D WQ	ACCESS:    4262314	FORWARD:      76190	MERGED:      86923	TO_CACHE:    4175391

L1D UNIQUE REGIONS ACCESSED: 0
L1D REGIONS CONFLICTS: 0
L1D Cross Page Prefetch Requests: 0
L1D Same Page Prefetch Requests: 0
L1D ROI Sum of L1D PQ occupancy: 0
L1D PREFETCHES PUSHED FROM L2C: 0
L1I TOTAL     ACCESS:    9429765  HIT:    8499979  MISS:     929786  HIT %:    90.1399  MISS %:    9.86012   MPKI: 18.5957
L1I LOAD      ACCESS:    9429765  HIT:    8499979  MISS:     929786  HIT %:    90.1399  MISS %:    9.86012   MPKI: 18.5957
L1I PREFETCH  REQUESTED:          0  ISSUED:          0  USEFUL:          0  USELESS:          0
L1I USEFUL LOAD PREFETCHES:          0 PREFETCH ISSUED TO LOWER LEVEL:          0  ACCURACY: -nan
L1I TIMELY PREFETCHES:          0 LATE PREFETCHES: 0 DROPPED PREFETCHES: 0
L1I PREFETCHES SAME FILL-ORIGIN LEVEL: 0 DIFFERENT FILL-ORIGIN LEVEL: 0
L1I AVERAGE MISS LATENCY: 16.1346 cycles
L1I RQ	ACCESS:   14293650	FORWARD:          0	MERGED:    4533863	TO_CACHE:    9759787

BTB TOTAL     ACCESS:    6697829  HIT:    6283948  MISS:     413881  HIT %:    93.8207  MISS %:    6.17933   MPKI: 8.27762
BTB BRANCH_DIRECT_JUMP	ACCESS:     755928  HIT:     751742  MISS:       4186
BTB BRANCH_INDIRECT	ACCESS:     348209  HIT:     188037  MISS:     160172
BTB BRANCH_CONDITIONAL	ACCESS:    4185151  HIT:    4172629  MISS:      12522
BTB BRANCH_DIRECT_CALL	ACCESS:     451943  HIT:     445427  MISS:       6516
BTB BRANCH_INDIRECT_CALL	ACCESS:     241100  HIT:     182621  MISS:      58479
BTB BRANCH_RETURN	ACCESS:     715498  HIT:     543492  MISS:     172006
BTB BRANCH_OTHER ACCESS:          0  HIT:          0  MISS:          0

L2C TOTAL     ACCESS:    2302878  HIT:    2154222  MISS:     148656  HIT %:    93.5448  MISS %:    6.45523   MPKI: 2.97312
L2C LOAD      ACCESS:    1587563  HIT:    1484476  MISS:     103087  HIT %:    93.5066  MISS %:    6.49341   MPKI: 2.06174
L2C DATA LOAD MPKI: 1.81248
L2C INSTRUCTION LOAD MPKI: 0.24926
L2C RFO       ACCESS:      86839  HIT:      44166  MISS:      42673  HIT %:    50.8596  MISS %:    49.1404   MPKI: 0.85346
L2C PREFETCH  ACCESS:     355848  HIT:     354796  MISS:       1052  HIT %:    99.7044  MISS %:   0.295632   MPKI: 0.02104
L2C DATA PREFETCH MPKI: 0.02104
L2C INSTRUCTION PREFETCH MPKI: 0
L2C WRITEBACK ACCESS:     268668  HIT:     268373  MISS:        295  HIT %:    99.8902  MISS %:   0.109801   MPKI: 0.0059
L2C LOAD TRANSLATION ACCESS:       3960  HIT:       2411  MISS:       1549  HIT %:    60.8838  MISS %:    39.1162   MPKI: 0.03098
L2C PREFETCH  REQUESTED:     582481  ISSUED:     582481  USEFUL:        875  USELESS:        152
L2C USEFUL LOAD PREFETCHES:        875 PREFETCH ISSUED TO LOWER LEVEL:     207728  ACCURACY: 0.421224
L2C TIMELY PREFETCHES:        875 LATE PREFETCHES: 243 DROPPED PREFETCHES: 0
L2C PREFETCHES SAME FILL-ORIGIN LEVEL: 1295 DIFFERENT FILL-ORIGIN LEVEL: 206433
L2C AVERAGE MISS LATENCY: 110.283 cycles
L2C RQ	ACCESS:    1678503	FORWARD:          0	MERGED:          0	TO_CACHE:    1678362
L2C WQ	ACCESS:     268668	FORWARD:        147	MERGED:          0	TO_CACHE:     268668
L2C PQ	ACCESS:     582481	FORWARD:          0	MERGED:      13730	TO_CACHE:     568745

L2C Instructions Evicting Data 10815
L2C Translations Evicting Data 1379
L2C Data Evicting Data 123113
L2C Instructions Evicting Instructions 1486
L2C Translations Evicting Instructions 133
L2C Data Evicting Instructions 10002
L2C Instructions Evicting Translations 162
L2C Translations Evicting Translations 37
L2C Data Evicting Translations 1234
L2C Dense regions hint from L2: 0
PSCL5 TOTAL     ACCESS:       3761  HIT:       3761  MISS:          0  HIT %:        100  MISS %:          0   MPKI: 0
PSCL5 LOAD TRANSLATION ACCESS:       3761  HIT:       3761  MISS:          0  HIT %:        100  MISS %:          0   MPKI: 0
PSCL5 PREFETCH  REQUESTED:          0  ISSUED:          0  USEFUL:          0  USELESS:          0
PSCL5 USEFUL LOAD PREFETCHES:          0 PREFETCH ISSUED TO LOWER LEVEL:          0  ACCURACY: -nan
PSCL5 TIMELY PREFETCHES:          0 LATE PREFETCHES: 0 DROPPED PREFETCHES: 0
PSCL5 PREFETCHES SAME FILL-ORIGIN LEVEL: 0 DIFFERENT FILL-ORIGIN LEVEL: 0

PSCL4 TOTAL     ACCESS:       3712  HIT:       3707  MISS:          5  HIT %:    99.8653  MISS %:   0.134698   MPKI: 0.0001
PSCL4 LOAD TRANSLATION ACCESS:       3712  HIT:       3707  MISS:          5  HIT %:    99.8653  MISS %:   0.134698   MPKI: 0.0001
PSCL4 PREFETCH  REQUESTED:          0  ISSUED:          0  USEFUL:          0  USELESS:          0
PSCL4 USEFUL LOAD PREFETCHES:          0 PREFETCH ISSUED TO LOWER LEVEL:          0  ACCURACY: -nan
PSCL4 TIMELY PREFETCHES:          0 LATE PREFETCHES: 0 DROPPED PREFETCHES: 0
PSCL4 PREFETCHES SAME FILL-ORIGIN LEVEL: 0 DIFFERENT FILL-ORIGIN LEVEL: 0

PSCL3 TOTAL     ACCESS:       3747  HIT:       3735  MISS:         12  HIT %:    99.6797  MISS %:   0.320256   MPKI: 0.00024
PSCL3 LOAD TRANSLATION ACCESS:       3747  HIT:       3735  MISS:         12  HIT %:    99.6797  MISS %:   0.320256   MPKI: 0.00024
PSCL3 PREFETCH  REQUESTED:          0  ISSUED:          0  USEFUL:          0  USELESS:          0
PSCL3 USEFUL LOAD PREFETCHES:          0 PREFETCH ISSUED TO LOWER LEVEL:          0  ACCURACY: -nan
PSCL3 TIMELY PREFETCHES:          0 LATE PREFETCHES: 0 DROPPED PREFETCHES: 0
PSCL3 PREFETCHES SAME FILL-ORIGIN LEVEL: 0 DIFFERENT FILL-ORIGIN LEVEL: 0

PSCL2 TOTAL     ACCESS:       3761  HIT:       3576  MISS:        185  HIT %:    95.0811  MISS %:     4.9189   MPKI: 0.0037
PSCL2 LOAD TRANSLATION ACCESS:       3761  HIT:       3576  MISS:        185  HIT %:    95.0811  MISS %:     4.9189   MPKI: 0.0037
PSCL2 PREFETCH  REQUESTED:          0  ISSUED:          0  USEFUL:          0  USELESS:          0
PSCL2 USEFUL LOAD PREFETCHES:          0 PREFETCH ISSUED TO LOWER LEVEL:          0  ACCURACY: -nan
PSCL2 TIMELY PREFETCHES:          0 LATE PREFETCHES: 0 DROPPED PREFETCHES: 0
PSCL2 PREFETCHES SAME FILL-ORIGIN LEVEL: 0 DIFFERENT FILL-ORIGIN LEVEL: 0

LLC TOTAL     ACCESS:     416534  HIT:     314925  MISS:     101609  HIT %:    75.6061  MISS %:    24.3939   MPKI: 2.03218
LLC LOAD      ACCESS:     102844  HIT:      65788  MISS:      37056  HIT %:    63.9687  MISS %:    36.0313   MPKI: 0.74112
LLC RFO       ACCESS:      42673  HIT:       7518  MISS:      35155  HIT %:    17.6177  MISS %:    82.3823   MPKI: 0.7031
LLC PREFETCH  ACCESS:     204558  HIT:     176616  MISS:      27942  HIT %:    86.3403  MISS %:    13.6597   MPKI: 0.55884
LLC WRITEBACK ACCESS:      64910  HIT:      64764  MISS:        146  HIT %:    99.7751  MISS %:   0.224927   MPKI: 0.00292
LLC LOAD TRANSLATION ACCESS:       1549  HIT:        239  MISS:       1310  HIT %:    15.4293  MISS %:    84.5707   MPKI: 0.0262
LLC PREFETCH  REQUESTED:          0  ISSUED:          0  USEFUL:      10937  USELESS:      11577
LLC USEFUL LOAD PREFETCHES:      10937 PREFETCH ISSUED TO LOWER LEVEL:      28811  ACCURACY: 37.9612
LLC TIMELY PREFETCHES:      10937 LATE PREFETCHES: 869 DROPPED PREFETCHES: 0
LLC PREFETCHES SAME FILL-ORIGIN LEVEL: 28718 DIFFERENT FILL-ORIGIN LEVEL: 0
LLC AVERAGE MISS LATENCY: 164.583 cycles
LLC RQ	ACCESS:     147066	FORWARD:          0	MERGED:          0	TO_CACHE:     147066
LLC WQ	ACCESS:      64910	FORWARD:          0	MERGED:          0	TO_CACHE:      64910
LLC PQ	ACCESS:     207728	FORWARD:          0	MERGED:        858	TO_CACHE:     206870

LLC Dense regions hint to LLC: 0

RAW hits: 742062
Loads Generated: 14941095
Loads sent to L1D: 14199028
Stores Generated: 4262313
Stores sent to L1D: 4262314
Major fault: 0 Minor fault: 3373
Allocated PAGES: 3373
 All Calls: 751648
 Critical Calls: 751648
------------------
Depth Distribution
------------------
depth 0: 0
depth 1: 500782
depth 2: 92883
depth 3: 24990
depth 4: 9340
depth 5: 4207
depth 6: 1597
depth 7: 274
depth 8: 40
depth 9: 5
depth 10: 0
depth 11: 0
depth 12: 0
depth 13: 0
depth 14: 0
depth 15: 0
depth 16: 0
depth 17: 0
depth 18: 0
depth 19: 0
depth 20: 0
depth 21: 0
depth 22: 0
depth 23: 0
depth 24: 0
depth 25: 0
depth 26: 0
depth 27: 0
depth 28: 0
depth 29: 0
Total: 634118
-----------------------------
-----------------------------
	Captured at Filter
-----------------------------
depth 0: 0
depth 1: 30066
depth 2: 16478
depth 3: 9036
depth 4: 3212
depth 5: 1010
depth 6: 158
depth 7: 13
depth 8: 0
depth 9: 0
depth 10: 0
depth 11: 0
depth 12: 0
depth 13: 0
depth 14: 0
depth 15: 0
depth 16: 0
depth 17: 0
depth 18: 0
depth 19: 0
depth 20: 0
depth 21: 0
depth 22: 0
depth 23: 0
depth 24: 0
depth 25: 0
depth 26: 0
depth 27: 0
depth 28: 0
depth 29: 0
-----------------------------
-----------------------------
		Lost at Page
-----------------------------
depth 0: 0
depth 1: 28298
depth 2: 8257
depth 3: 4450
depth 4: 2044
depth 5: 923
depth 6: 227
depth 7: 51
depth 8: 2
depth 9: 0
depth 10: 0
depth 11: 0
depth 12: 0
depth 13: 0
depth 14: 0
depth 15: 0
depth 16: 0
depth 17: 0
depth 18: 0
depth 19: 0
depth 20: 0
depth 21: 0
depth 22: 0
depth 23: 0
depth 24: 0
depth 25: 0
depth 26: 0
depth 27: 0
depth 28: 0
depth 29: 0
-----------------------------
-----------------------------
	Lost due to PQ Size
-----------------------------
0
-----------------------------
ST read accesses: 633844
ST write accesses: 23933
PT read accesses: 8251824
PT write accesses: 875889
FILTER read accesses: 1448078
FILTER write accesses: 161750
GHR read accesses: 455643
GHR write accesses: 42244
GHR counter read accesses: 6449594
GHR counter write accesses: 668558
ST tag read accesses: 267136225
ST tag write accesses: 24964840

DRAM Statistics
 CHANNEL 0
 RQ ROW_BUFFER_HIT:      16259  ROW_BUFFER_MISS:      85204
 DBUS_CONGESTED:        109
 WQ ROW_BUFFER_HIT:      12059  ROW_BUFFER_MISS:      50594  FULL:          0

 AVG_CONGESTED_CYCLE: 4
 All warmup complete: 2
Channel 0 Bank busy for read cycles: 0
Channel 0 Bank busy for write cycles: 0
Channel 0
Rank 0
0banks busy for read cycles: 68002120
0banks busy for write cycles: 23692
1banks busy for read cycles: 6371688
1banks busy for write cycles: 3095478
2banks busy for read cycles: 1787256
2banks busy for write cycles: 868649
3banks busy for read cycles: 587741
3banks busy for write cycles: 483244
4banks busy for read cycles: 254191
4banks busy for write cycles: 309861
5banks busy for read cycles: 93473
5banks busy for write cycles: 215119
6banks busy for read cycles: 34432
6banks busy for write cycles: 176437
7banks busy for read cycles: 16822
7banks busy for write cycles: 169645
8banks busy for read cycles: 11812
8banks busy for write cycles: 286488

CPU 0 Branch Prediction Accuracy: 95.4787% MPKI: 8.10268 Average ROB Occupancy at Mispredict: 47.4933
Branch types
NOT_BRANCH: 41039511 82.079%
BRANCH_DIRECT_JUMP: 755928 1.51186%
BRANCH_INDIRECT: 348209 0.696418%
BRANCH_CONDITIONAL: 6447952 12.8959%
BRANCH_DIRECT_CALL: 451943 0.903886%
BRANCH_INDIRECT_CALL: 241100 0.4822%
BRANCH_RETURN: 715498 1.431%
BRANCH_OTHER: 0 0%

@sumon_overall_L1D         0         0         0         0         0         0
@Sumon_Early_by_class_L1D         0         0         0         0
@Sumon_Late_by_class_L1D         0         0         0         0

@Sumon_Early_by_cycle_L1D         0         0         0         0         0         0         0         0         0         0         0         0
@Sumon_Late_by_cycle_L1D         0         0         0         0         0         0         0         0         0         0         0         0
@Sumon_Early_stream_L1D         0         0         0         0         0         0         0         0         0         0         0         0
@Sumon_Early_CS_L1D         0         0         0         0         0         0         0         0         0         0         0         0
@Sumon_Early_CPLX_L1D         0         0         0         0         0         0         0         0         0         0         0         0
@Sumon_Late_stream_L1D         0         0         0         0         0         0         0         0         0         0         0         0
@Sumon_Late_CS_L1D         0         0         0         0         0         0         0         0         0         0         0         0
@Sumon_Late_CPLX_L1D         0         0         0         0         0         0         0         0         0         0         0         0
@sumon_overall_L2C       875       243       152      1052    582481    582481
@Sumon_Early_by_class_L2C         0         0         0         0
@Sumon_Late_by_class_L2C         0         0         0         0

@Sumon_Early_by_cycle_L2C       368       160        80        52        42       112        21         5         2         4         5        24
@Sumon_Late_by_cycle_L2C       202        34         7         0         0         0         0         0         0         0         0         0
@Sumon_Early_stream_L2C         0         0         0         0         0         0         0         0         0         0         0         0
@Sumon_Early_CS_L2C         0         0         0         0         0         0         0         0         0         0         0         0
@Sumon_Early_CPLX_L2C         0         0         0         0         0         0         0         0         0         0         0         0
@Sumon_Late_stream_L2C         0         0         0         0         0         0         0         0         0         0         0         0
@Sumon_Late_CS_L2C         0         0         0         0         0         0         0         0         0         0         0         0
@Sumon_Late_CPLX_L2C         0         0         0         0         0         0         0         0         0         0         0         0
DRAM PAGES: 1048576
Allocated PAGES: 3373
