Initialize SIGNATURE TABLE
ST_SET: 1
ST_WAY: 256
ST_TAG_BIT: 16
ST_TAG_MASK: ffff

Initialize PATTERN TABLE
PT_SET: 512
PT_WAY: 4
SIG_DELTA_BIT: 7
C_SIG_BIT: 4
C_DELTA_BIT: 4

Initialize PREFETCH FILTER
FILTER_SET: 1024

*** ChampSim Multicore Out-of-Order Simulator ***

Warmup Instructions: 10000000
Simulation Instructions: 50000000
Number of CPUs: 1
LLC sets: 2048
LLC ways: 16
Off-chip DRAM Size: 4096 MB Channels: 1 Width: 64-bit Data Rate: 6400 MT/s
CPU 0 runs traces/clientserver/client_003.champsimtrace.xz
.xz
CPU 0 Bimodal branch predictor
BTB has LRU replacement policy
ITLB has LRU replacement policy
DTLB has LRU replacement policy
STLB has LRU replacement policy
L1I has LRU replacement policy
L1D has LRU replacement policy
ST_WAYS: 256
PT_SETS: 512
L2C has LRU replacement policy
LLC has LRU replacement policy
Heartbeat CPU 0 instructions: 10000000 cycles: 2804641 heartbeat IPC: 3.56552 cumulative IPC: 3.56552 (Simulation time: 0 hr 10 min 43 sec) 

Warmup complete CPU 0 instructions: 10000004 cycles: 2804642 (Simulation time: 0 hr 10 min 43 sec) 

Heartbeat CPU 0 instructions: 20000000 cycles: 20672858 heartbeat IPC: 0.559653 cumulative IPC: 0.559653 (Simulation time: 0 hr 25 min 58 sec) 
Heartbeat CPU 0 instructions: 30000000 cycles: 35695423 heartbeat IPC: 0.665665 cumulative IPC: 0.608073 (Simulation time: 0 hr 41 min 23 sec) 
Heartbeat CPU 0 instructions: 40000000 cycles: 50253766 heartbeat IPC: 0.686891 cumulative IPC: 0.632256 (Simulation time: 0 hr 57 min 16 sec) 
Heartbeat CPU 0 instructions: 50000003 cycles: 64324553 heartbeat IPC: 0.710693 cumulative IPC: 0.650196 (Simulation time: 1 hr 12 min 49 sec) 
Heartbeat CPU 0 instructions: 60000002 cycles: 78884896 heartbeat IPC: 0.686797 cumulative IPC: 0.657201 (Simulation time: 1 hr 27 min 41 sec) 
Finished CPU 0 instructions: 50000001 cycles: 76080256 cumulative IPC: 0.657201 (Simulation time: 1 hr 27 min 41 sec) 

ChampSim completed all CPUs

Region of Interest Statistics

CPU 0 cumulative IPC: 0.657201 instructions: 50000001 cycles: 76080256
ITLB TOTAL     ACCESS:    8474444  HIT:    8403046  MISS:      71398  HIT %:    99.1575  MISS %:    0.84251   MPKI: 1.42796
ITLB LOAD TRANSLATION ACCESS:    8474444  HIT:    8403046  MISS:      71398  HIT %:    99.1575  MISS %:    0.84251   MPKI: 1.42796
ITLB PREFETCH  REQUESTED:          0  ISSUED:          0  USEFUL:          0  USELESS:          0
ITLB USEFUL LOAD PREFETCHES:          0 PREFETCH ISSUED TO LOWER LEVEL:          0  ACCURACY: -nan
ITLB TIMELY PREFETCHES:          0 LATE PREFETCHES: 0 DROPPED PREFETCHES: 0
ITLB PREFETCHES SAME FILL-ORIGIN LEVEL: 0 DIFFERENT FILL-ORIGIN LEVEL: 0
ITLB AVERAGE MISS LATENCY: 9.95574 cycles
ITLB RQ	ACCESS:   10051859	FORWARD:          0	MERGED:    1557125	TO_CACHE:    8494734

DTLB TOTAL     ACCESS:   10996216  HIT:   10875987  MISS:     120229  HIT %:    98.9066  MISS %:    1.09337   MPKI: 2.40458
DTLB LOAD TRANSLATION ACCESS:   10996216  HIT:   10875987  MISS:     120229  HIT %:    98.9066  MISS %:    1.09337   MPKI: 2.40458
DTLB PREFETCH  REQUESTED:          0  ISSUED:          0  USEFUL:          0  USELESS:          0
DTLB USEFUL LOAD PREFETCHES:          0 PREFETCH ISSUED TO LOWER LEVEL:          0  ACCURACY: -nan
DTLB TIMELY PREFETCHES:          0 LATE PREFETCHES: 0 DROPPED PREFETCHES: 0
DTLB PREFETCHES SAME FILL-ORIGIN LEVEL: 0 DIFFERENT FILL-ORIGIN LEVEL: 0
DTLB AVERAGE MISS LATENCY: 10.3006 cycles
DTLB RQ	ACCESS:   15115141	FORWARD:          0	MERGED:    4110626	TO_CACHE:   11004515

STLB TOTAL     ACCESS:     191627  HIT:     189854  MISS:       1773  HIT %:    99.0748  MISS %:   0.925235   MPKI: 0.03546
STLB LOAD TRANSLATION ACCESS:     191627  HIT:     189854  MISS:       1773  HIT %:    99.0748  MISS %:   0.925235   MPKI: 0.03546
STLB PREFETCH  REQUESTED:          0  ISSUED:          0  USEFUL:          0  USELESS:          0
STLB USEFUL LOAD PREFETCHES:          0 PREFETCH ISSUED TO LOWER LEVEL:          0  ACCURACY: -nan
STLB TIMELY PREFETCHES:          0 LATE PREFETCHES: 0 DROPPED PREFETCHES: 0
STLB PREFETCHES SAME FILL-ORIGIN LEVEL: 0 DIFFERENT FILL-ORIGIN LEVEL: 0
STLB AVERAGE MISS LATENCY: 123.677 cycles
STLB RQ	ACCESS:     191627	FORWARD:          0	MERGED:          0	TO_CACHE:     191627

STLB Hit, L1D data hit: 0
STLB Hit, L2C data hit: 0
STLB Hit, LLC data hit: 0
STLB Hit, LLC data miss: 0
STLB STLB hints to L2: 0
L1D TOTAL     ACCESS:   14756473  HIT:   14467939  MISS:     288534  HIT %:    98.0447  MISS %:     1.9553   MPKI: 5.77068
L1D LOAD      ACCESS:    7423437  HIT:    7291980  MISS:     131457  HIT %:    98.2292  MISS %:    1.77084   MPKI: 2.62914
L1D RFO       ACCESS:    7333036  HIT:    7175959  MISS:     157077  HIT %:     97.858  MISS %:    2.14205   MPKI: 3.14154
L1D PREFETCH  REQUESTED:          0  ISSUED:          0  USEFUL:          0  USELESS:          0
L1D USEFUL LOAD PREFETCHES:          0 PREFETCH ISSUED TO LOWER LEVEL:          0  ACCURACY: -nan
L1D TIMELY PREFETCHES:          0 LATE PREFETCHES: 0 DROPPED PREFETCHES: 0
L1D PREFETCHES SAME FILL-ORIGIN LEVEL: 0 DIFFERENT FILL-ORIGIN LEVEL: 0
L1D AVERAGE MISS LATENCY: 60.0668 cycles
L1D RQ	ACCESS:   12004927	FORWARD:          0	MERGED:    4401256	TO_CACHE:    7439472
L1D WQ	ACCESS:    7811254	FORWARD:     164199	MERGED:     135585	TO_CACHE:    7675669

L1D UNIQUE REGIONS ACCESSED: 0
L1D REGIONS CONFLICTS: 0
L1D Cross Page Prefetch Requests: 0
L1D Same Page Prefetch Requests: 0
L1D ROI Sum of L1D PQ occupancy: 0
L1D PREFETCHES PUSHED FROM L2C: 0
L1I TOTAL     ACCESS:    9925179  HIT:    9390064  MISS:     535115  HIT %:    94.6085  MISS %:    5.39149   MPKI: 10.7023
L1I LOAD      ACCESS:    9925179  HIT:    9390064  MISS:     535115  HIT %:    94.6085  MISS %:    5.39149   MPKI: 10.7023
L1I PREFETCH  REQUESTED:          0  ISSUED:          0  USEFUL:          0  USELESS:          0
L1I USEFUL LOAD PREFETCHES:          0 PREFETCH ISSUED TO LOWER LEVEL:          0  ACCURACY: -nan
L1I TIMELY PREFETCHES:          0 LATE PREFETCHES: 0 DROPPED PREFETCHES: 0
L1I PREFETCHES SAME FILL-ORIGIN LEVEL: 0 DIFFERENT FILL-ORIGIN LEVEL: 0
L1I AVERAGE MISS LATENCY: 22.5951 cycles
L1I RQ	ACCESS:   14767836	FORWARD:          0	MERGED:    4715977	TO_CACHE:   10051859

BTB TOTAL     ACCESS:    6766808  HIT:    6169221  MISS:     597587  HIT %:    91.1688  MISS %:    8.83115   MPKI: 11.9517
BTB BRANCH_DIRECT_JUMP	ACCESS:     494781  HIT:     477302  MISS:      17479
BTB BRANCH_INDIRECT	ACCESS:     114379  HIT:      50385  MISS:      63994
BTB BRANCH_CONDITIONAL	ACCESS:    3862756  HIT:    3810705  MISS:      52051
BTB BRANCH_DIRECT_CALL	ACCESS:     995377  HIT:     956807  MISS:      38570
BTB BRANCH_INDIRECT_CALL	ACCESS:     151743  HIT:     115162  MISS:      36581
BTB BRANCH_RETURN	ACCESS:    1147772  HIT:     758860  MISS:     388912
BTB BRANCH_OTHER ACCESS:          0  HIT:          0  MISS:          0

L2C TOTAL     ACCESS:    1035115  HIT:     806074  MISS:     229041  HIT %:    77.8729  MISS %:    22.1271   MPKI: 4.58082
L2C LOAD      ACCESS:     666571  HIT:     558155  MISS:     108416  HIT %:    83.7353  MISS %:    16.2647   MPKI: 2.16832
L2C DATA LOAD MPKI: 0.8762
L2C INSTRUCTION LOAD MPKI: 1.29212
L2C RFO       ACCESS:     157073  HIT:      40173  MISS:     116900  HIT %:     25.576  MISS %:     74.424   MPKI: 2.338
L2C PREFETCH  ACCESS:      24472  HIT:      23013  MISS:       1459  HIT %:    94.0381  MISS %:    5.96192   MPKI: 0.02918
L2C DATA PREFETCH MPKI: 0.02918
L2C INSTRUCTION PREFETCH MPKI: 0
L2C WRITEBACK ACCESS:     185158  HIT:     183826  MISS:       1332  HIT %:    99.2806  MISS %:   0.719386   MPKI: 0.02664
L2C LOAD TRANSLATION ACCESS:       1841  HIT:        907  MISS:        934  HIT %:    49.2667  MISS %:    50.7333   MPKI: 0.01868
L2C PREFETCH  REQUESTED:      52963  ISSUED:      52963  USEFUL:       1420  USELESS:         38
L2C USEFUL LOAD PREFETCHES:       1420 PREFETCH ISSUED TO LOWER LEVEL:      28880  ACCURACY: 4.9169
L2C TIMELY PREFETCHES:       1420 LATE PREFETCHES: 39 DROPPED PREFETCHES: 0
L2C PREFETCHES SAME FILL-ORIGIN LEVEL: 1498 DIFFERENT FILL-ORIGIN LEVEL: 27382
L2C AVERAGE MISS LATENCY: 77.3409 cycles
L2C RQ	ACCESS:     825490	FORWARD:          0	MERGED:          0	TO_CACHE:     825485
L2C WQ	ACCESS:     185158	FORWARD:          5	MERGED:          0	TO_CACHE:     185158
L2C PQ	ACCESS:      52963	FORWARD:          0	MERGED:        600	TO_CACHE:      52363

L2C Instructions Evicting Data 41263
L2C Translations Evicting Data 632
L2C Data Evicting Data 119533
L2C Instructions Evicting Instructions 23038
L2C Translations Evicting Instructions 298
L2C Data Evicting Instructions 41985
L2C Instructions Evicting Translations 305
L2C Translations Evicting Translations 4
L2C Data Evicting Translations 651
L2C Dense regions hint from L2: 0
PSCL5 TOTAL     ACCESS:       1773  HIT:       1773  MISS:          0  HIT %:        100  MISS %:          0   MPKI: 0
PSCL5 LOAD TRANSLATION ACCESS:       1773  HIT:       1773  MISS:          0  HIT %:        100  MISS %:          0   MPKI: 0
PSCL5 PREFETCH  REQUESTED:          0  ISSUED:          0  USEFUL:          0  USELESS:          0
PSCL5 USEFUL LOAD PREFETCHES:          0 PREFETCH ISSUED TO LOWER LEVEL:          0  ACCURACY: -nan
PSCL5 TIMELY PREFETCHES:          0 LATE PREFETCHES: 0 DROPPED PREFETCHES: 0
PSCL5 PREFETCHES SAME FILL-ORIGIN LEVEL: 0 DIFFERENT FILL-ORIGIN LEVEL: 0

PSCL4 TOTAL     ACCESS:       1773  HIT:       1773  MISS:          0  HIT %:        100  MISS %:          0   MPKI: 0
PSCL4 LOAD TRANSLATION ACCESS:       1773  HIT:       1773  MISS:          0  HIT %:        100  MISS %:          0   MPKI: 0
PSCL4 PREFETCH  REQUESTED:          0  ISSUED:          0  USEFUL:          0  USELESS:          0
PSCL4 USEFUL LOAD PREFETCHES:          0 PREFETCH ISSUED TO LOWER LEVEL:          0  ACCURACY: -nan
PSCL4 TIMELY PREFETCHES:          0 LATE PREFETCHES: 0 DROPPED PREFETCHES: 0
PSCL4 PREFETCHES SAME FILL-ORIGIN LEVEL: 0 DIFFERENT FILL-ORIGIN LEVEL: 0

PSCL3 TOTAL     ACCESS:       1771  HIT:       1771  MISS:          0  HIT %:        100  MISS %:          0   MPKI: 0
PSCL3 LOAD TRANSLATION ACCESS:       1771  HIT:       1771  MISS:          0  HIT %:        100  MISS %:          0   MPKI: 0
PSCL3 PREFETCH  REQUESTED:          0  ISSUED:          0  USEFUL:          0  USELESS:          0
PSCL3 USEFUL LOAD PREFETCHES:          0 PREFETCH ISSUED TO LOWER LEVEL:          0  ACCURACY: -nan
PSCL3 TIMELY PREFETCHES:          0 LATE PREFETCHES: 0 DROPPED PREFETCHES: 0
PSCL3 PREFETCHES SAME FILL-ORIGIN LEVEL: 0 DIFFERENT FILL-ORIGIN LEVEL: 0

PSCL2 TOTAL     ACCESS:       1773  HIT:       1702  MISS:         71  HIT %:    95.9955  MISS %:    4.00451   MPKI: 0.00142
PSCL2 LOAD TRANSLATION ACCESS:       1773  HIT:       1702  MISS:         71  HIT %:    95.9955  MISS %:    4.00451   MPKI: 0.00142
PSCL2 PREFETCH  REQUESTED:          0  ISSUED:          0  USEFUL:          0  USELESS:          0
PSCL2 USEFUL LOAD PREFETCHES:          0 PREFETCH ISSUED TO LOWER LEVEL:          0  ACCURACY: -nan
PSCL2 TIMELY PREFETCHES:          0 LATE PREFETCHES: 0 DROPPED PREFETCHES: 0
PSCL2 PREFETCHES SAME FILL-ORIGIN LEVEL: 0 DIFFERENT FILL-ORIGIN LEVEL: 0

LLC TOTAL     ACCESS:     381732  HIT:     296219  MISS:      85513  HIT %:    77.5987  MISS %:    22.4013   MPKI: 1.71026
LLC LOAD      ACCESS:     108377  HIT:      85368  MISS:      23009  HIT %:    78.7695  MISS %:    21.2305   MPKI: 0.46018
LLC RFO       ACCESS:     116900  HIT:      60582  MISS:      56318  HIT %:    51.8238  MISS %:    48.1762   MPKI: 1.12636
LLC PREFETCH  ACCESS:      25523  HIT:      19990  MISS:       5533  HIT %:    78.3215  MISS %:    21.6785   MPKI: 0.11066
LLC WRITEBACK ACCESS:     129998  HIT:     129780  MISS:        218  HIT %:    99.8323  MISS %:   0.167695   MPKI: 0.00436
LLC LOAD TRANSLATION ACCESS:        934  HIT:        499  MISS:        435  HIT %:    53.4261  MISS %:    46.5739   MPKI: 0.0087
LLC PREFETCH  REQUESTED:          0  ISSUED:          0  USEFUL:       2940  USELESS:       2319
LLC USEFUL LOAD PREFETCHES:       2940 PREFETCH ISSUED TO LOWER LEVEL:       5724  ACCURACY: 51.3627
LLC TIMELY PREFETCHES:       2940 LATE PREFETCHES: 191 DROPPED PREFETCHES: 0
LLC PREFETCHES SAME FILL-ORIGIN LEVEL: 5679 DIFFERENT FILL-ORIGIN LEVEL: 0
LLC AVERAGE MISS LATENCY: 137.799 cycles
LLC RQ	ACCESS:     226211	FORWARD:          0	MERGED:          0	TO_CACHE:     226211
LLC WQ	ACCESS:     129998	FORWARD:          0	MERGED:          0	TO_CACHE:     129998
LLC PQ	ACCESS:      28880	FORWARD:          0	MERGED:         63	TO_CACHE:      28817

LLC Dense regions hint to LLC: 0

RAW hits: 1569929
Loads Generated: 13574857
Loads sent to L1D: 12004927
Stores Generated: 7811247
Stores sent to L1D: 7811254
Major fault: 0 Minor fault: 2338
Allocated PAGES: 2338
 All Calls: 161473
 Critical Calls: 161473
------------------
Depth Distribution
------------------
depth 0: 0
depth 1: 34783
depth 2: 11452
depth 3: 8106
depth 4: 5674
depth 5: 3868
depth 6: 1755
depth 7: 639
depth 8: 256
depth 9: 0
depth 10: 0
depth 11: 0
depth 12: 0
depth 13: 0
depth 14: 0
depth 15: 0
depth 16: 0
depth 17: 0
depth 18: 0
depth 19: 0
depth 20: 0
depth 21: 0
depth 22: 0
depth 23: 0
depth 24: 0
depth 25: 0
depth 26: 0
depth 27: 0
depth 28: 0
depth 29: 0
Total: 66533
-----------------------------
-----------------------------
	Captured at Filter
-----------------------------
depth 0: 0
depth 1: 226
depth 2: 102
depth 3: 81
depth 4: 52
depth 5: 42
depth 6: 24
depth 7: 7
depth 8: 0
depth 9: 0
depth 10: 0
depth 11: 0
depth 12: 0
depth 13: 0
depth 14: 0
depth 15: 0
depth 16: 0
depth 17: 0
depth 18: 0
depth 19: 0
depth 20: 0
depth 21: 0
depth 22: 0
depth 23: 0
depth 24: 0
depth 25: 0
depth 26: 0
depth 27: 0
depth 28: 0
depth 29: 0
-----------------------------
-----------------------------
		Lost at Page
-----------------------------
depth 0: 0
depth 1: 872
depth 2: 322
depth 3: 343
depth 4: 344
depth 5: 316
depth 6: 180
depth 7: 65
depth 8: 27
depth 9: 0
depth 10: 0
depth 11: 0
depth 12: 0
depth 13: 0
depth 14: 0
depth 15: 0
depth 16: 0
depth 17: 0
depth 18: 0
depth 19: 0
depth 20: 0
depth 21: 0
depth 22: 0
depth 23: 0
depth 24: 0
depth 25: 0
depth 26: 0
depth 27: 0
depth 28: 0
depth 29: 0
-----------------------------
-----------------------------
	Lost due to PQ Size
-----------------------------
0
-----------------------------
ST read accesses: 126327
ST write accesses: 5129
PT read accesses: 1504397
PT write accesses: 172617
FILTER read accesses: 413872
FILTER write accesses: 234488
GHR read accesses: 51278
GHR write accesses: 1881
GHR counter read accesses: 1007788
GHR counter write accesses: 135770
ST tag read accesses: 53420437
ST tag write accesses: 5448730

DRAM Statistics
 CHANNEL 0
 RQ ROW_BUFFER_HIT:      32024  ROW_BUFFER_MISS:      53271
 DBUS_CONGESTED:         60
 WQ ROW_BUFFER_HIT:      11733  ROW_BUFFER_MISS:      46442  FULL:          0

 AVG_CONGESTED_CYCLE: 3
 All warmup complete: 2
Channel 0 Bank busy for read cycles: 0
Channel 0 Bank busy for write cycles: 0
Channel 0
Rank 0
0banks busy for read cycles: 65069523
0banks busy for write cycles: 20783
1banks busy for read cycles: 4893207
1banks busy for write cycles: 2706653
2banks busy for read cycles: 964936
2banks busy for write cycles: 865868
3banks busy for read cycles: 173364
3banks busy for write cycles: 341191
4banks busy for read cycles: 61559
4banks busy for write cycles: 185104
5banks busy for read cycles: 58570
5banks busy for write cycles: 108604
6banks busy for read cycles: 67733
6banks busy for write cycles: 87149
7banks busy for read cycles: 63407
7banks busy for write cycles: 87168
8banks busy for read cycles: 107897
8banks busy for write cycles: 217541

CPU 0 Branch Prediction Accuracy: 95.2436% MPKI: 8.774 Average ROB Occupancy at Mispredict: 38.2676
Branch types
NOT_BRANCH: 40776380 81.5528%
BRANCH_DIRECT_JUMP: 494781 0.989562%
BRANCH_INDIRECT: 114379 0.228758%
BRANCH_CONDITIONAL: 6319235 12.6385%
BRANCH_DIRECT_CALL: 995377 1.99075%
BRANCH_INDIRECT_CALL: 151743 0.303486%
BRANCH_RETURN: 1147772 2.29554%
BRANCH_OTHER: 0 0%

@sumon_overall_L1D         0         0         0         0         0         0
@Sumon_Early_by_class_L1D         0         0         0         0
@Sumon_Late_by_class_L1D         0         0         0         0

@Sumon_Early_by_cycle_L1D         0         0         0         0         0         0         0         0         0         0         0         0
@Sumon_Late_by_cycle_L1D         0         0         0         0         0         0         0         0         0         0         0         0
@Sumon_Early_stream_L1D         0         0         0         0         0         0         0         0         0         0         0         0
@Sumon_Early_CS_L1D         0         0         0         0         0         0         0         0         0         0         0         0
@Sumon_Early_CPLX_L1D         0         0         0         0         0         0         0         0         0         0         0         0
@Sumon_Late_stream_L1D         0         0         0         0         0         0         0         0         0         0         0         0
@Sumon_Late_CS_L1D         0         0         0         0         0         0         0         0         0         0         0         0
@Sumon_Late_CPLX_L1D         0         0         0         0         0         0         0         0         0         0         0         0
@sumon_overall_L2C      1420        39        38      1459     52963     52963
@Sumon_Early_by_class_L2C         0         0         0         0
@Sumon_Late_by_class_L2C         0         0         0         0

@Sumon_Early_by_cycle_L2C       750        38        17        18        33       117        95        93        42        32        53       132
@Sumon_Late_by_cycle_L2C        28        11         0         0         0         0         0         0         0         0         0         0
@Sumon_Early_stream_L2C         0         0         0         0         0         0         0         0         0         0         0         0
@Sumon_Early_CS_L2C         0         0         0         0         0         0         0         0         0         0         0         0
@Sumon_Early_CPLX_L2C         0         0         0         0         0         0         0         0         0         0         0         0
@Sumon_Late_stream_L2C         0         0         0         0         0         0         0         0         0         0         0         0
@Sumon_Late_CS_L2C         0         0         0         0         0         0         0         0         0         0         0         0
@Sumon_Late_CPLX_L2C         0         0         0         0         0         0         0         0         0         0         0         0
DRAM PAGES: 1048576
Allocated PAGES: 2338
