Initialize SIGNATURE TABLE
ST_SET: 1
ST_WAY: 256
ST_TAG_BIT: 16
ST_TAG_MASK: ffff

Initialize PATTERN TABLE
PT_SET: 512
PT_WAY: 4
SIG_DELTA_BIT: 7
C_SIG_BIT: 4
C_DELTA_BIT: 4

Initialize PREFETCH FILTER
FILTER_SET: 1024

*** ChampSim Multicore Out-of-Order Simulator ***

Warmup Instructions: 10000000
Simulation Instructions: 50000000
Number of CPUs: 1
LLC sets: 2048
LLC ways: 16
Off-chip DRAM Size: 4096 MB Channels: 1 Width: 64-bit Data Rate: 6400 MT/s
CPU 0 runs traces/clientserver/client_002.champsimtrace.xz
.xz
CPU 0 Bimodal branch predictor
BTB has LRU replacement policy
ITLB has LRU replacement policy
DTLB has LRU replacement policy
STLB has LRU replacement policy
L1I has LRU replacement policy
L1D has LRU replacement policy
ST_WAYS: 256
PT_SETS: 512
L2C has LRU replacement policy
LLC has LRU replacement policy
Heartbeat CPU 0 instructions: 10000000 cycles: 2815699 heartbeat IPC: 3.55152 cumulative IPC: 3.55152 (Simulation time: 0 hr 10 min 8 sec) 

Warmup complete CPU 0 instructions: 10000004 cycles: 2815700 (Simulation time: 0 hr 10 min 8 sec) 

Heartbeat CPU 0 instructions: 20000002 cycles: 17841103 heartbeat IPC: 0.66554 cumulative IPC: 0.665539 (Simulation time: 0 hr 24 min 49 sec) 
Heartbeat CPU 0 instructions: 30000001 cycles: 33033122 heartbeat IPC: 0.65824 cumulative IPC: 0.66187 (Simulation time: 0 hr 39 min 30 sec) 
Heartbeat CPU 0 instructions: 40000002 cycles: 48352216 heartbeat IPC: 0.65278 cumulative IPC: 0.658812 (Simulation time: 0 hr 54 min 11 sec) 
Heartbeat CPU 0 instructions: 50000000 cycles: 63348371 heartbeat IPC: 0.666837 cumulative IPC: 0.6608 (Simulation time: 1 hr 8 min 53 sec) 
Heartbeat CPU 0 instructions: 60000001 cycles: 78499088 heartbeat IPC: 0.660035 cumulative IPC: 0.660647 (Simulation time: 1 hr 23 min 17 sec) 
Finished CPU 0 instructions: 50000002 cycles: 75683398 cumulative IPC: 0.660647 (Simulation time: 1 hr 23 min 17 sec) 

ChampSim completed all CPUs

Region of Interest Statistics

CPU 0 cumulative IPC: 0.660647 instructions: 50000002 cycles: 75683398
ITLB TOTAL     ACCESS:    8438487  HIT:    8342661  MISS:      95826  HIT %:    98.8644  MISS %:    1.13558   MPKI: 1.91652
ITLB LOAD TRANSLATION ACCESS:    8438487  HIT:    8342661  MISS:      95826  HIT %:    98.8644  MISS %:    1.13558   MPKI: 1.91652
ITLB PREFETCH  REQUESTED:          0  ISSUED:          0  USEFUL:          0  USELESS:          0
ITLB USEFUL LOAD PREFETCHES:          0 PREFETCH ISSUED TO LOWER LEVEL:          0  ACCURACY: -nan
ITLB TIMELY PREFETCHES:          0 LATE PREFETCHES: 0 DROPPED PREFETCHES: 0
ITLB PREFETCHES SAME FILL-ORIGIN LEVEL: 0 DIFFERENT FILL-ORIGIN LEVEL: 0
ITLB AVERAGE MISS LATENCY: 9.548 cycles
ITLB RQ	ACCESS:   10239225	FORWARD:          0	MERGED:    1770766	TO_CACHE:    8468459

DTLB TOTAL     ACCESS:   10585458  HIT:   10428727  MISS:     156731  HIT %:    98.5194  MISS %:    1.48063   MPKI: 3.13462
DTLB LOAD TRANSLATION ACCESS:   10585458  HIT:   10428727  MISS:     156731  HIT %:    98.5194  MISS %:    1.48063   MPKI: 3.13462
DTLB PREFETCH  REQUESTED:          0  ISSUED:          0  USEFUL:          0  USELESS:          0
DTLB USEFUL LOAD PREFETCHES:          0 PREFETCH ISSUED TO LOWER LEVEL:          0  ACCURACY: -nan
DTLB TIMELY PREFETCHES:          0 LATE PREFETCHES: 0 DROPPED PREFETCHES: 0
DTLB PREFETCHES SAME FILL-ORIGIN LEVEL: 0 DIFFERENT FILL-ORIGIN LEVEL: 0
DTLB AVERAGE MISS LATENCY: 10.9449 cycles
DTLB RQ	ACCESS:   14110706	FORWARD:          0	MERGED:    3509557	TO_CACHE:   10601149

STLB TOTAL     ACCESS:     252557  HIT:     244148  MISS:       8409  HIT %:    96.6705  MISS %:    3.32955   MPKI: 0.16818
STLB LOAD TRANSLATION ACCESS:     252557  HIT:     244148  MISS:       8409  HIT %:    96.6705  MISS %:    3.32955   MPKI: 0.16818
STLB PREFETCH  REQUESTED:          0  ISSUED:          0  USEFUL:          0  USELESS:          0
STLB USEFUL LOAD PREFETCHES:          0 PREFETCH ISSUED TO LOWER LEVEL:          0  ACCURACY: -nan
STLB TIMELY PREFETCHES:          0 LATE PREFETCHES: 0 DROPPED PREFETCHES: 0
STLB PREFETCHES SAME FILL-ORIGIN LEVEL: 0 DIFFERENT FILL-ORIGIN LEVEL: 0
STLB AVERAGE MISS LATENCY: 41.4857 cycles
STLB RQ	ACCESS:     252557	FORWARD:          0	MERGED:          0	TO_CACHE:     252557

STLB Hit, L1D data hit: 0
STLB Hit, L2C data hit: 0
STLB Hit, LLC data hit: 0
STLB Hit, LLC data miss: 0
STLB STLB hints to L2: 0
L1D TOTAL     ACCESS:   13892472  HIT:   13660563  MISS:     231909  HIT %:    98.3307  MISS %:    1.66931   MPKI: 4.63818
L1D LOAD      ACCESS:    7410255  HIT:    7274650  MISS:     135605  HIT %:      98.17  MISS %:    1.82996   MPKI: 2.7121
L1D RFO       ACCESS:    6482217  HIT:    6385913  MISS:      96304  HIT %:    98.5143  MISS %:    1.48566   MPKI: 1.92608
L1D PREFETCH  REQUESTED:          0  ISSUED:          0  USEFUL:          0  USELESS:          0
L1D USEFUL LOAD PREFETCHES:          0 PREFETCH ISSUED TO LOWER LEVEL:          0  ACCURACY: -nan
L1D TIMELY PREFETCHES:          0 LATE PREFETCHES: 0 DROPPED PREFETCHES: 0
L1D PREFETCHES SAME FILL-ORIGIN LEVEL: 0 DIFFERENT FILL-ORIGIN LEVEL: 0
L1D AVERAGE MISS LATENCY: 46.9815 cycles
L1D RQ	ACCESS:   11678390	FORWARD:          0	MERGED:    4075078	TO_CACHE:    7420307
L1D WQ	ACCESS:    6853195	FORWARD:     183005	MERGED:     162796	TO_CACHE:    6690399

L1D UNIQUE REGIONS ACCESSED: 0
L1D REGIONS CONFLICTS: 0
L1D Cross Page Prefetch Requests: 0
L1D Same Page Prefetch Requests: 0
L1D ROI Sum of L1D PQ occupancy: 0
L1D PREFETCHES PUSHED FROM L2C: 0
L1I TOTAL     ACCESS:   10141345  HIT:    9674288  MISS:     467057  HIT %:    95.3945  MISS %:    4.60547   MPKI: 9.34114
L1I LOAD      ACCESS:   10141345  HIT:    9674288  MISS:     467057  HIT %:    95.3945  MISS %:    4.60547   MPKI: 9.34114
L1I PREFETCH  REQUESTED:          0  ISSUED:          0  USEFUL:          0  USELESS:          0
L1I USEFUL LOAD PREFETCHES:          0 PREFETCH ISSUED TO LOWER LEVEL:          0  ACCURACY: -nan
L1I TIMELY PREFETCHES:          0 LATE PREFETCHES: 0 DROPPED PREFETCHES: 0
L1I PREFETCHES SAME FILL-ORIGIN LEVEL: 0 DIFFERENT FILL-ORIGIN LEVEL: 0
L1I AVERAGE MISS LATENCY: 19.9816 cycles
L1I RQ	ACCESS:   15109022	FORWARD:          0	MERGED:    4869797	TO_CACHE:   10239225

BTB TOTAL     ACCESS:    6796237  HIT:    6165045  MISS:     631192  HIT %:    90.7126  MISS %:    9.28737   MPKI: 12.6238
BTB BRANCH_DIRECT_JUMP	ACCESS:     517874  HIT:     500004  MISS:      17870
BTB BRANCH_INDIRECT	ACCESS:     114556  HIT:      57356  MISS:      57200
BTB BRANCH_CONDITIONAL	ACCESS:    3999865  HIT:    3947993  MISS:      51872
BTB BRANCH_DIRECT_CALL	ACCESS:     959047  HIT:     921975  MISS:      37072
BTB BRANCH_INDIRECT_CALL	ACCESS:     122815  HIT:      95300  MISS:      27515
BTB BRANCH_RETURN	ACCESS:    1082080  HIT:     642417  MISS:     439663
BTB BRANCH_OTHER ACCESS:          0  HIT:          0  MISS:          0

L2C TOTAL     ACCESS:     905158  HIT:     711819  MISS:     193339  HIT %:    78.6403  MISS %:    21.3597   MPKI: 3.86678
L2C LOAD      ACCESS:     602662  HIT:     482927  MISS:     119735  HIT %:    80.1323  MISS %:    19.8677   MPKI: 2.3947
L2C DATA LOAD MPKI: 0.793
L2C INSTRUCTION LOAD MPKI: 1.6017
L2C RFO       ACCESS:      96304  HIT:      26551  MISS:      69753  HIT %:      27.57  MISS %:      72.43   MPKI: 1.39506
L2C PREFETCH  ACCESS:      81316  HIT:      79185  MISS:       2131  HIT %:    97.3794  MISS %:    2.62064   MPKI: 0.04262
L2C DATA PREFETCH MPKI: 0.04262
L2C INSTRUCTION PREFETCH MPKI: 0
L2C WRITEBACK ACCESS:     116289  HIT:     116010  MISS:        279  HIT %:    99.7601  MISS %:    0.23992   MPKI: 0.00558
L2C LOAD TRANSLATION ACCESS:       8587  HIT:       7146  MISS:       1441  HIT %:    83.2188  MISS %:    16.7812   MPKI: 0.02882
L2C PREFETCH  REQUESTED:     137477  ISSUED:     137477  USEFUL:       2006  USELESS:        133
L2C USEFUL LOAD PREFETCHES:       2006 PREFETCH ISSUED TO LOWER LEVEL:      56311  ACCURACY: 3.56236
L2C TIMELY PREFETCHES:       2006 LATE PREFETCHES: 674 DROPPED PREFETCHES: 0
L2C PREFETCHES SAME FILL-ORIGIN LEVEL: 2805 DIFFERENT FILL-ORIGIN LEVEL: 53506
L2C AVERAGE MISS LATENCY: 53.4526 cycles
L2C RQ	ACCESS:     707553	FORWARD:          0	MERGED:          0	TO_CACHE:     707553
L2C WQ	ACCESS:     116289	FORWARD:          1	MERGED:          0	TO_CACHE:     116289
L2C PQ	ACCESS:     137477	FORWARD:          0	MERGED:        943	TO_CACHE:     136533

L2C Instructions Evicting Data 47080
L2C Translations Evicting Data 792
L2C Data Evicting Data 63948
L2C Instructions Evicting Instructions 32371
L2C Translations Evicting Instructions 634
L2C Data Evicting Instructions 46726
L2C Instructions Evicting Translations 634
L2C Translations Evicting Translations 15
L2C Data Evicting Translations 859
L2C Dense regions hint from L2: 0
PSCL5 TOTAL     ACCESS:       8409  HIT:       8409  MISS:          0  HIT %:        100  MISS %:          0   MPKI: 0
PSCL5 LOAD TRANSLATION ACCESS:       8409  HIT:       8409  MISS:          0  HIT %:        100  MISS %:          0   MPKI: 0
PSCL5 PREFETCH  REQUESTED:          0  ISSUED:          0  USEFUL:          0  USELESS:          0
PSCL5 USEFUL LOAD PREFETCHES:          0 PREFETCH ISSUED TO LOWER LEVEL:          0  ACCURACY: -nan
PSCL5 TIMELY PREFETCHES:          0 LATE PREFETCHES: 0 DROPPED PREFETCHES: 0
PSCL5 PREFETCHES SAME FILL-ORIGIN LEVEL: 0 DIFFERENT FILL-ORIGIN LEVEL: 0

PSCL4 TOTAL     ACCESS:       8409  HIT:       8409  MISS:          0  HIT %:        100  MISS %:          0   MPKI: 0
PSCL4 LOAD TRANSLATION ACCESS:       8409  HIT:       8409  MISS:          0  HIT %:        100  MISS %:          0   MPKI: 0
PSCL4 PREFETCH  REQUESTED:          0  ISSUED:          0  USEFUL:          0  USELESS:          0
PSCL4 USEFUL LOAD PREFETCHES:          0 PREFETCH ISSUED TO LOWER LEVEL:          0  ACCURACY: -nan
PSCL4 TIMELY PREFETCHES:          0 LATE PREFETCHES: 0 DROPPED PREFETCHES: 0
PSCL4 PREFETCHES SAME FILL-ORIGIN LEVEL: 0 DIFFERENT FILL-ORIGIN LEVEL: 0

PSCL3 TOTAL     ACCESS:       8401  HIT:       8395  MISS:          6  HIT %:    99.9286  MISS %:  0.0714201   MPKI: 0.00012
PSCL3 LOAD TRANSLATION ACCESS:       8401  HIT:       8395  MISS:          6  HIT %:    99.9286  MISS %:  0.0714201   MPKI: 0.00012
PSCL3 PREFETCH  REQUESTED:          0  ISSUED:          0  USEFUL:          0  USELESS:          0
PSCL3 USEFUL LOAD PREFETCHES:          0 PREFETCH ISSUED TO LOWER LEVEL:          0  ACCURACY: -nan
PSCL3 TIMELY PREFETCHES:          0 LATE PREFETCHES: 0 DROPPED PREFETCHES: 0
PSCL3 PREFETCHES SAME FILL-ORIGIN LEVEL: 0 DIFFERENT FILL-ORIGIN LEVEL: 0

PSCL2 TOTAL     ACCESS:       8409  HIT:       8234  MISS:        175  HIT %:    97.9189  MISS %:     2.0811   MPKI: 0.0035
PSCL2 LOAD TRANSLATION ACCESS:       8409  HIT:       8234  MISS:        175  HIT %:    97.9189  MISS %:     2.0811   MPKI: 0.0035
PSCL2 PREFETCH  REQUESTED:          0  ISSUED:          0  USEFUL:          0  USELESS:          0
PSCL2 USEFUL LOAD PREFETCHES:          0 PREFETCH ISSUED TO LOWER LEVEL:          0  ACCURACY: -nan
PSCL2 TIMELY PREFETCHES:          0 LATE PREFETCHES: 0 DROPPED PREFETCHES: 0
PSCL2 PREFETCHES SAME FILL-ORIGIN LEVEL: 0 DIFFERENT FILL-ORIGIN LEVEL: 0

LLC TOTAL     ACCESS:     320788  HIT:     272437  MISS:      48351  HIT %:    84.9274  MISS %:    15.0726   MPKI: 0.96702
LLC LOAD      ACCESS:     119061  HIT:     111904  MISS:       7157  HIT %:    93.9888  MISS %:     6.0112   MPKI: 0.14314
LLC RFO       ACCESS:      69753  HIT:      37948  MISS:      31805  HIT %:    54.4034  MISS %:    45.5966   MPKI: 0.6361
LLC PREFETCH  ACCESS:      55935  HIT:      46951  MISS:       8984  HIT %:    83.9385  MISS %:    16.0615   MPKI: 0.17968
LLC WRITEBACK ACCESS:      74598  HIT:      74455  MISS:        143  HIT %:    99.8083  MISS %:   0.191694   MPKI: 0.00286
LLC LOAD TRANSLATION ACCESS:       1441  HIT:       1179  MISS:        262  HIT %:    81.8182  MISS %:    18.1818   MPKI: 0.00524
LLC PREFETCH  REQUESTED:          0  ISSUED:          0  USEFUL:       5111  USELESS:       3295
LLC USEFUL LOAD PREFETCHES:       5111 PREFETCH ISSUED TO LOWER LEVEL:       9125  ACCURACY: 56.011
LLC TIMELY PREFETCHES:       5111 LATE PREFETCHES: 141 DROPPED PREFETCHES: 0
LLC PREFETCHES SAME FILL-ORIGIN LEVEL: 9081 DIFFERENT FILL-ORIGIN LEVEL: 0
LLC AVERAGE MISS LATENCY: 120.847 cycles
LLC RQ	ACCESS:     190255	FORWARD:          0	MERGED:          0	TO_CACHE:     190255
LLC WQ	ACCESS:      74598	FORWARD:          0	MERGED:          0	TO_CACHE:      74598
LLC PQ	ACCESS:      56311	FORWARD:          0	MERGED:         44	TO_CACHE:      56267

LLC Dense regions hint to LLC: 0

RAW hits: 1464563
Loads Generated: 13142955
Loads sent to L1D: 11678390
Stores Generated: 6853201
Stores sent to L1D: 6853195
Major fault: 0 Minor fault: 2277
Allocated PAGES: 2277
 All Calls: 165934
 Critical Calls: 165934
------------------
Depth Distribution
------------------
depth 0: 0
depth 1: 79505
depth 2: 24477
depth 3: 19284
depth 4: 15752
depth 5: 13278
depth 6: 9889
depth 7: 4300
depth 8: 1543
depth 9: 196
depth 10: 21
depth 11: 5
depth 12: 1
depth 13: 0
depth 14: 0
depth 15: 0
depth 16: 0
depth 17: 0
depth 18: 0
depth 19: 0
depth 20: 0
depth 21: 0
depth 22: 0
depth 23: 0
depth 24: 0
depth 25: 0
depth 26: 0
depth 27: 0
depth 28: 0
depth 29: 0
Total: 168251
-----------------------------
-----------------------------
	Captured at Filter
-----------------------------
depth 0: 0
depth 1: 808
depth 2: 474
depth 3: 406
depth 4: 307
depth 5: 222
depth 6: 153
depth 7: 52
depth 8: 20
depth 9: 7
depth 10: 0
depth 11: 0
depth 12: 0
depth 13: 0
depth 14: 0
depth 15: 0
depth 16: 0
depth 17: 0
depth 18: 0
depth 19: 0
depth 20: 0
depth 21: 0
depth 22: 0
depth 23: 0
depth 24: 0
depth 25: 0
depth 26: 0
depth 27: 0
depth 28: 0
depth 29: 0
-----------------------------
-----------------------------
		Lost at Page
-----------------------------
depth 0: 0
depth 1: 3376
depth 2: 547
depth 3: 623
depth 4: 703
depth 5: 763
depth 6: 729
depth 7: 373
depth 8: 154
depth 9: 19
depth 10: 2
depth 11: 1
depth 12: 1
depth 13: 0
depth 14: 0
depth 15: 0
depth 16: 0
depth 17: 0
depth 18: 0
depth 19: 0
depth 20: 0
depth 21: 0
depth 22: 0
depth 23: 0
depth 24: 0
depth 25: 0
depth 26: 0
depth 27: 0
depth 28: 0
depth 29: 0
-----------------------------
-----------------------------
	Lost due to PQ Size
-----------------------------
0
-----------------------------
ST read accesses: 123507
ST write accesses: 12098
PT read accesses: 1761698
PT write accesses: 157035
FILTER read accesses: 468432
FILTER write accesses: 209474
GHR read accesses: 135309
GHR write accesses: 5906
GHR counter read accesses: 1384086
GHR counter write accesses: 150123
ST tag read accesses: 58059726
ST tag write accesses: 6203962

DRAM Statistics
 CHANNEL 0
 RQ ROW_BUFFER_HIT:      25840  ROW_BUFFER_MISS:      22368
 DBUS_CONGESTED:         87
 WQ ROW_BUFFER_HIT:       4187  ROW_BUFFER_MISS:      19112  FULL:          0

 AVG_CONGESTED_CYCLE: 3
 All warmup complete: 2
Channel 0 Bank busy for read cycles: 0
Channel 0 Bank busy for write cycles: 0
Channel 0
Rank 0
0banks busy for read cycles: 71152633
0banks busy for write cycles: 8775
1banks busy for read cycles: 2021033
1banks busy for write cycles: 1141788
2banks busy for read cycles: 434653
2banks busy for write cycles: 256189
3banks busy for read cycles: 109658
3banks busy for write cycles: 81300
4banks busy for read cycles: 58275
4banks busy for write cycles: 45718
5banks busy for read cycles: 45125
5banks busy for write cycles: 32308
6banks busy for read cycles: 44342
6banks busy for write cycles: 26114
7banks busy for read cycles: 38562
7banks busy for write cycles: 36072
8banks busy for read cycles: 54234
8banks busy for write cycles: 96620

CPU 0 Branch Prediction Accuracy: 94.7154% MPKI: 10.0037 Average ROB Occupancy at Mispredict: 33.1112
Branch types
NOT_BRANCH: 40534656 81.0693%
BRANCH_DIRECT_JUMP: 517874 1.03575%
BRANCH_INDIRECT: 114556 0.229112%
BRANCH_CONDITIONAL: 6668634 13.3373%
BRANCH_DIRECT_CALL: 959047 1.91809%
BRANCH_INDIRECT_CALL: 122815 0.24563%
BRANCH_RETURN: 1082080 2.16416%
BRANCH_OTHER: 0 0%

@sumon_overall_L1D         0         0         0         0         0         0
@Sumon_Early_by_class_L1D         0         0         0         0
@Sumon_Late_by_class_L1D         0         0         0         0

@Sumon_Early_by_cycle_L1D         0         0         0         0         0         0         0         0         0         0         0         0
@Sumon_Late_by_cycle_L1D         0         0         0         0         0         0         0         0         0         0         0         0
@Sumon_Early_stream_L1D         0         0         0         0         0         0         0         0         0         0         0         0
@Sumon_Early_CS_L1D         0         0         0         0         0         0         0         0         0         0         0         0
@Sumon_Early_CPLX_L1D         0         0         0         0         0         0         0         0         0         0         0         0
@Sumon_Late_stream_L1D         0         0         0         0         0         0         0         0         0         0         0         0
@Sumon_Late_CS_L1D         0         0         0         0         0         0         0         0         0         0         0         0
@Sumon_Late_CPLX_L1D         0         0         0         0         0         0         0         0         0         0         0         0
@sumon_overall_L2C      2006       674       133      2131    137477    137477
@Sumon_Early_by_class_L2C         0         0         0         0
@Sumon_Late_by_class_L2C         0         0         0         0

@Sumon_Early_by_cycle_L2C       680        44        89        97       221       744        66        17        25        17         3         3
@Sumon_Late_by_cycle_L2C       668         6         0         0         0         0         0         0         0         0         0         0
@Sumon_Early_stream_L2C         0         0         0         0         0         0         0         0         0         0         0         0
@Sumon_Early_CS_L2C         0         0         0         0         0         0         0         0         0         0         0         0
@Sumon_Early_CPLX_L2C         0         0         0         0         0         0         0         0         0         0         0         0
@Sumon_Late_stream_L2C         0         0         0         0         0         0         0         0         0         0         0         0
@Sumon_Late_CS_L2C         0         0         0         0         0         0         0         0         0         0         0         0
@Sumon_Late_CPLX_L2C         0         0         0         0         0         0         0         0         0         0         0         0
DRAM PAGES: 1048576
Allocated PAGES: 2277
