Initialize SIGNATURE TABLE
ST_SET: 1
ST_WAY: 256
ST_TAG_BIT: 16
ST_TAG_MASK: ffff

Initialize PATTERN TABLE
PT_SET: 512
PT_WAY: 4
SIG_DELTA_BIT: 7
C_SIG_BIT: 4
C_DELTA_BIT: 4

Initialize PREFETCH FILTER
FILTER_SET: 1024

*** ChampSim Multicore Out-of-Order Simulator ***

Warmup Instructions: 10000000
Simulation Instructions: 50000000
Number of CPUs: 1
LLC sets: 2048
LLC ways: 16
Off-chip DRAM Size: 4096 MB Channels: 1 Width: 64-bit Data Rate: 6400 MT/s
CPU 0 runs traces/clientserver/server_004.champsimtrace.xz
.xz
CPU 0 Bimodal branch predictor
BTB has LRU replacement policy
ITLB has LRU replacement policy
DTLB has LRU replacement policy
STLB has LRU replacement policy
L1I has LRU replacement policy
L1D has LRU replacement policy
ST_WAYS: 256
PT_SETS: 512
L2C has LRU replacement policy
LLC has LRU replacement policy
Heartbeat CPU 0 instructions: 10000002 cycles: 2783972 heartbeat IPC: 3.59199 cumulative IPC: 3.59199 (Simulation time: 0 hr 10 min 3 sec) 

Warmup complete CPU 0 instructions: 10000002 cycles: 2783972 (Simulation time: 0 hr 10 min 3 sec) 

Heartbeat CPU 0 instructions: 20000002 cycles: 24953197 heartbeat IPC: 0.451076 cumulative IPC: 0.451076 (Simulation time: 0 hr 26 min 24 sec) 
Heartbeat CPU 0 instructions: 30000000 cycles: 57981576 heartbeat IPC: 0.30277 cumulative IPC: 0.362335 (Simulation time: 0 hr 50 min 28 sec) 
Heartbeat CPU 0 instructions: 40000000 cycles: 82518846 heartbeat IPC: 0.407543 cumulative IPC: 0.376247 (Simulation time: 1 hr 9 min 0 sec) 
Heartbeat CPU 0 instructions: 50000000 cycles: 104139323 heartbeat IPC: 0.462524 cumulative IPC: 0.394651 (Simulation time: 1 hr 24 min 54 sec) 
Heartbeat CPU 0 instructions: 60000000 cycles: 126357350 heartbeat IPC: 0.450085 cumulative IPC: 0.404618 (Simulation time: 1 hr 34 min 22 sec) 
Finished CPU 0 instructions: 50000002 cycles: 123573394 cumulative IPC: 0.404618 (Simulation time: 1 hr 34 min 22 sec) 

ChampSim completed all CPUs

Region of Interest Statistics

CPU 0 cumulative IPC: 0.404618 instructions: 50000002 cycles: 123573394
ITLB TOTAL     ACCESS:    9094933  HIT:    8933257  MISS:     161676  HIT %:    98.2224  MISS %:    1.77765   MPKI: 3.23352
ITLB LOAD TRANSLATION ACCESS:    9094933  HIT:    8933257  MISS:     161676  HIT %:    98.2224  MISS %:    1.77765   MPKI: 3.23352
ITLB PREFETCH  REQUESTED:          0  ISSUED:          0  USEFUL:          0  USELESS:          0
ITLB USEFUL LOAD PREFETCHES:          0 PREFETCH ISSUED TO LOWER LEVEL:          0  ACCURACY: -nan
ITLB TIMELY PREFETCHES:          0 LATE PREFETCHES: 0 DROPPED PREFETCHES: 0
ITLB PREFETCHES SAME FILL-ORIGIN LEVEL: 0 DIFFERENT FILL-ORIGIN LEVEL: 0
ITLB AVERAGE MISS LATENCY: 18.3545 cycles
ITLB RQ	ACCESS:   10624668	FORWARD:          0	MERGED:    1489912	TO_CACHE:    9134756

DTLB TOTAL     ACCESS:   11122875  HIT:    9581665  MISS:    1541210  HIT %:    86.1438  MISS %:    13.8562   MPKI: 30.8242
DTLB LOAD TRANSLATION ACCESS:   11122875  HIT:    9581665  MISS:    1541210  HIT %:    86.1438  MISS %:    13.8562   MPKI: 30.8242
DTLB PREFETCH  REQUESTED:          0  ISSUED:          0  USEFUL:          0  USELESS:          0
DTLB USEFUL LOAD PREFETCHES:          0 PREFETCH ISSUED TO LOWER LEVEL:          0  ACCURACY: -nan
DTLB TIMELY PREFETCHES:          0 LATE PREFETCHES: 0 DROPPED PREFETCHES: 0
DTLB PREFETCHES SAME FILL-ORIGIN LEVEL: 0 DIFFERENT FILL-ORIGIN LEVEL: 0
DTLB AVERAGE MISS LATENCY: 11.4714 cycles
DTLB RQ	ACCESS:   14182471	FORWARD:          0	MERGED:    3033295	TO_CACHE:   11149176

STLB TOTAL     ACCESS:    1702886  HIT:    1599099  MISS:     103787  HIT %:    93.9052  MISS %:    6.09477   MPKI: 2.07574
STLB LOAD TRANSLATION ACCESS:    1702886  HIT:    1599099  MISS:     103787  HIT %:    93.9052  MISS %:    6.09477   MPKI: 2.07574
STLB PREFETCH  REQUESTED:          0  ISSUED:          0  USEFUL:          0  USELESS:          0
STLB USEFUL LOAD PREFETCHES:          0 PREFETCH ISSUED TO LOWER LEVEL:          0  ACCURACY: -nan
STLB TIMELY PREFETCHES:          0 LATE PREFETCHES: 0 DROPPED PREFETCHES: 0
STLB PREFETCHES SAME FILL-ORIGIN LEVEL: 0 DIFFERENT FILL-ORIGIN LEVEL: 0
STLB AVERAGE MISS LATENCY: 51.1283 cycles
STLB RQ	ACCESS:    1702886	FORWARD:          0	MERGED:          0	TO_CACHE:    1702886

STLB Hit, L1D data hit: 0
STLB Hit, L2C data hit: 0
STLB Hit, LLC data hit: 0
STLB Hit, LLC data miss: 0
STLB STLB hints to L2: 0
L1D TOTAL     ACCESS:   14051912  HIT:   11992943  MISS:    2058969  HIT %:    85.3474  MISS %:    14.6526   MPKI: 41.1794
L1D LOAD      ACCESS:    9326927  HIT:    7364776  MISS:    1962151  HIT %:    78.9625  MISS %:    21.0375   MPKI: 39.243
L1D RFO       ACCESS:    4724985  HIT:    4628167  MISS:      96818  HIT %:    97.9509  MISS %:    2.04906   MPKI: 1.93636
L1D PREFETCH  REQUESTED:          0  ISSUED:          0  USEFUL:          0  USELESS:          0
L1D USEFUL LOAD PREFETCHES:          0 PREFETCH ISSUED TO LOWER LEVEL:          0  ACCURACY: -nan
L1D TIMELY PREFETCHES:          0 LATE PREFETCHES: 0 DROPPED PREFETCHES: 0
L1D PREFETCHES SAME FILL-ORIGIN LEVEL: 0 DIFFERENT FILL-ORIGIN LEVEL: 0
L1D AVERAGE MISS LATENCY: 23.4766 cycles
L1D RQ	ACCESS:   12613272	FORWARD:          0	MERGED:    3182865	TO_CACHE:    9356202
L1D WQ	ACCESS:    4936225	FORWARD:      74205	MERGED:     109956	TO_CACHE:    4826269

L1D UNIQUE REGIONS ACCESSED: 0
L1D REGIONS CONFLICTS: 0
L1D Cross Page Prefetch Requests: 0
L1D Same Page Prefetch Requests: 0
L1D ROI Sum of L1D PQ occupancy: 0
L1D PREFETCHES PUSHED FROM L2C: 0
L1I TOTAL     ACCESS:   10328786  HIT:    9301481  MISS:    1027305  HIT %:     90.054  MISS %:    9.94604   MPKI: 20.5461
L1I LOAD      ACCESS:   10328786  HIT:    9301481  MISS:    1027305  HIT %:     90.054  MISS %:    9.94604   MPKI: 20.5461
L1I PREFETCH  REQUESTED:          0  ISSUED:          0  USEFUL:          0  USELESS:          0
L1I USEFUL LOAD PREFETCHES:          0 PREFETCH ISSUED TO LOWER LEVEL:          0  ACCURACY: -nan
L1I TIMELY PREFETCHES:          0 LATE PREFETCHES: 0 DROPPED PREFETCHES: 0
L1I PREFETCHES SAME FILL-ORIGIN LEVEL: 0 DIFFERENT FILL-ORIGIN LEVEL: 0
L1I AVERAGE MISS LATENCY: 32.6655 cycles
L1I RQ	ACCESS:   15415207	FORWARD:          0	MERGED:    4790539	TO_CACHE:   10624668

BTB TOTAL     ACCESS:    6676538  HIT:    5902605  MISS:     773933  HIT %:    88.4082  MISS %:    11.5918   MPKI: 15.4787
BTB BRANCH_DIRECT_JUMP	ACCESS:     544515  HIT:     488010  MISS:      56505
BTB BRANCH_INDIRECT	ACCESS:     135142  HIT:     100243  MISS:      34899
BTB BRANCH_CONDITIONAL	ACCESS:    4036815  HIT:    3832685  MISS:     204130
BTB BRANCH_DIRECT_CALL	ACCESS:     780947  HIT:     677878  MISS:     103069
BTB BRANCH_INDIRECT_CALL	ACCESS:     187570  HIT:     160642  MISS:      26928
BTB BRANCH_RETURN	ACCESS:     991549  HIT:     643147  MISS:     348402
BTB BRANCH_OTHER ACCESS:          0  HIT:          0  MISS:          0

L2C TOTAL     ACCESS:    3822294  HIT:    2977631  MISS:     844663  HIT %:    77.9017  MISS %:    22.0983   MPKI: 16.8933
L2C LOAD      ACCESS:    2989448  HIT:    2260898  MISS:     728550  HIT %:    75.6293  MISS %:    24.3707   MPKI: 14.571
L2C DATA LOAD MPKI: 5.19254
L2C INSTRUCTION LOAD MPKI: 9.37846
L2C RFO       ACCESS:      96816  HIT:      43315  MISS:      53501  HIT %:    44.7395  MISS %:    55.2605   MPKI: 1.07002
L2C PREFETCH  ACCESS:     391645  HIT:     385936  MISS:       5709  HIT %:    98.5423  MISS %:     1.4577   MPKI: 0.11418
L2C DATA PREFETCH MPKI: 0.11418
L2C INSTRUCTION PREFETCH MPKI: 0
L2C WRITEBACK ACCESS:     212606  HIT:     210721  MISS:       1885  HIT %:    99.1134  MISS %:   0.886617   MPKI: 0.0377
L2C LOAD TRANSLATION ACCESS:     131779  HIT:      76761  MISS:      55018  HIT %:    58.2498  MISS %:    41.7502   MPKI: 1.10036
L2C PREFETCH  REQUESTED:     869576  ISSUED:     869575  USEFUL:       5190  USELESS:        518
L2C USEFUL LOAD PREFETCHES:       5190 PREFETCH ISSUED TO LOWER LEVEL:     326239  ACCURACY: 1.59086
L2C TIMELY PREFETCHES:       5190 LATE PREFETCHES: 1203 DROPPED PREFETCHES: 0
L2C PREFETCHES SAME FILL-ORIGIN LEVEL: 6912 DIFFERENT FILL-ORIGIN LEVEL: 319327
L2C AVERAGE MISS LATENCY: 45.5944 cycles
L2C RQ	ACCESS:    3218052	FORWARD:          0	MERGED:          0	TO_CACHE:    3218042
L2C WQ	ACCESS:     212606	FORWARD:         10	MERGED:          0	TO_CACHE:     212606
L2C PQ	ACCESS:     869575	FORWARD:          0	MERGED:     147347	TO_CACHE:     722228

L2C Instructions Evicting Data 177940
L2C Translations Evicting Data 20496
L2C Data Evicting Data 121440
L2C Instructions Evicting Instructions 260877
L2C Translations Evicting Instructions 30505
L2C Data Evicting Instructions 176704
L2C Instructions Evicting Translations 30106
L2C Translations Evicting Translations 4017
L2C Data Evicting Translations 20693
L2C Dense regions hint from L2: 0
PSCL5 TOTAL     ACCESS:     103787  HIT:     103787  MISS:          0  HIT %:        100  MISS %:          0   MPKI: 0
PSCL5 LOAD TRANSLATION ACCESS:     103787  HIT:     103787  MISS:          0  HIT %:        100  MISS %:          0   MPKI: 0
PSCL5 PREFETCH  REQUESTED:          0  ISSUED:          0  USEFUL:          0  USELESS:          0
PSCL5 USEFUL LOAD PREFETCHES:          0 PREFETCH ISSUED TO LOWER LEVEL:          0  ACCURACY: -nan
PSCL5 TIMELY PREFETCHES:          0 LATE PREFETCHES: 0 DROPPED PREFETCHES: 0
PSCL5 PREFETCHES SAME FILL-ORIGIN LEVEL: 0 DIFFERENT FILL-ORIGIN LEVEL: 0

PSCL4 TOTAL     ACCESS:      99553  HIT:      99318  MISS:        235  HIT %:    99.7639  MISS %:   0.236055   MPKI: 0.0047
PSCL4 LOAD TRANSLATION ACCESS:      99553  HIT:      99318  MISS:        235  HIT %:    99.7639  MISS %:   0.236055   MPKI: 0.0047
PSCL4 PREFETCH  REQUESTED:          0  ISSUED:          0  USEFUL:          0  USELESS:          0
PSCL4 USEFUL LOAD PREFETCHES:          0 PREFETCH ISSUED TO LOWER LEVEL:          0  ACCURACY: -nan
PSCL4 TIMELY PREFETCHES:          0 LATE PREFETCHES: 0 DROPPED PREFETCHES: 0
PSCL4 PREFETCHES SAME FILL-ORIGIN LEVEL: 0 DIFFERENT FILL-ORIGIN LEVEL: 0

PSCL3 TOTAL     ACCESS:     103242  HIT:     102582  MISS:        660  HIT %:    99.3607  MISS %:   0.639275   MPKI: 0.0132
PSCL3 LOAD TRANSLATION ACCESS:     103242  HIT:     102582  MISS:        660  HIT %:    99.3607  MISS %:   0.639275   MPKI: 0.0132
PSCL3 PREFETCH  REQUESTED:          0  ISSUED:          0  USEFUL:          0  USELESS:          0
PSCL3 USEFUL LOAD PREFETCHES:          0 PREFETCH ISSUED TO LOWER LEVEL:          0  ACCURACY: -nan
PSCL3 TIMELY PREFETCHES:          0 LATE PREFETCHES: 0 DROPPED PREFETCHES: 0
PSCL3 PREFETCHES SAME FILL-ORIGIN LEVEL: 0 DIFFERENT FILL-ORIGIN LEVEL: 0

PSCL2 TOTAL     ACCESS:     103787  HIT:      76583  MISS:      27204  HIT %:    73.7886  MISS %:    26.2114   MPKI: 0.54408
PSCL2 LOAD TRANSLATION ACCESS:     103787  HIT:      76583  MISS:      27204  HIT %:    73.7886  MISS %:    26.2114   MPKI: 0.54408
PSCL2 PREFETCH  REQUESTED:          0  ISSUED:          0  USEFUL:          0  USELESS:          0
PSCL2 USEFUL LOAD PREFETCHES:          0 PREFETCH ISSUED TO LOWER LEVEL:          0  ACCURACY: -nan
PSCL2 TIMELY PREFETCHES:          0 LATE PREFETCHES: 0 DROPPED PREFETCHES: 0
PSCL2 PREFETCHES SAME FILL-ORIGIN LEVEL: 0 DIFFERENT FILL-ORIGIN LEVEL: 0

LLC TOTAL     ACCESS:    1282011  HIT:    1142961  MISS:     139050  HIT %:    89.1538  MISS %:    10.8462   MPKI: 2.781
LLC LOAD      ACCESS:     727342  HIT:     661806  MISS:      65536  HIT %:    90.9897  MISS %:    9.01034   MPKI: 1.31072
LLC RFO       ACCESS:      53501  HIT:      38207  MISS:      15294  HIT %:    71.4136  MISS %:    28.5864   MPKI: 0.30588
LLC PREFETCH  ACCESS:     317789  HIT:     263509  MISS:      54280  HIT %:    82.9195  MISS %:    17.0805   MPKI: 1.0856
LLC WRITEBACK ACCESS:     128361  HIT:     128205  MISS:        156  HIT %:    99.8785  MISS %:   0.121532   MPKI: 0.00312
LLC LOAD TRANSLATION ACCESS:      55018  HIT:      51234  MISS:       3784  HIT %:    93.1223  MISS %:    6.87775   MPKI: 0.07568
LLC PREFETCH  REQUESTED:          0  ISSUED:          0  USEFUL:      23302  USELESS:      30807
LLC USEFUL LOAD PREFETCHES:      23302 PREFETCH ISSUED TO LOWER LEVEL:      55828  ACCURACY: 41.7389
LLC TIMELY PREFETCHES:      23302 LATE PREFETCHES: 1548 DROPPED PREFETCHES: 0
LLC PREFETCHES SAME FILL-ORIGIN LEVEL: 55644 DIFFERENT FILL-ORIGIN LEVEL: 0
LLC AVERAGE MISS LATENCY: 154.935 cycles
LLC RQ	ACCESS:     835865	FORWARD:          0	MERGED:          0	TO_CACHE:     835860
LLC WQ	ACCESS:     128361	FORWARD:          5	MERGED:          0	TO_CACHE:     128361
LLC PQ	ACCESS:     326239	FORWARD:          0	MERGED:       2981	TO_CACHE:     323258

LLC Dense regions hint to LLC: 0

RAW hits: 822208
Loads Generated: 13435467
Loads sent to L1D: 12613272
Stores Generated: 4936223
Stores sent to L1D: 4936225
Major fault: 0 Minor fault: 6644
Allocated PAGES: 6644
 All Calls: 2076129
 Critical Calls: 2076129
------------------
Depth Distribution
------------------
depth 0: 0
depth 1: 718479
depth 2: 205513
depth 3: 26004
depth 4: 11052
depth 5: 2094
depth 6: 221
depth 7: 112
depth 8: 72
depth 9: 38
depth 10: 14
depth 11: 5
depth 12: 4
depth 13: 0
depth 14: 0
depth 15: 0
depth 16: 0
depth 17: 0
depth 18: 0
depth 19: 0
depth 20: 0
depth 21: 0
depth 22: 0
depth 23: 0
depth 24: 0
depth 25: 0
depth 26: 0
depth 27: 0
depth 28: 0
depth 29: 0
Total: 963608
-----------------------------
-----------------------------
	Captured at Filter
-----------------------------
depth 0: 0
depth 1: 1176437
depth 2: 875156
depth 3: 8754
depth 4: 2885
depth 5: 1175
depth 6: 13
depth 7: 0
depth 8: 0
depth 9: 0
depth 10: 0
depth 11: 0
depth 12: 0
depth 13: 0
depth 14: 0
depth 15: 0
depth 16: 0
depth 17: 0
depth 18: 0
depth 19: 0
depth 20: 0
depth 21: 0
depth 22: 0
depth 23: 0
depth 24: 0
depth 25: 0
depth 26: 0
depth 27: 0
depth 28: 0
depth 29: 0
-----------------------------
-----------------------------
		Lost at Page
-----------------------------
depth 0: 0
depth 1: 60390
depth 2: 3668
depth 3: 1247
depth 4: 673
depth 5: 158
depth 6: 15
depth 7: 11
depth 8: 9
depth 9: 6
depth 10: 1
depth 11: 0
depth 12: 0
depth 13: 0
depth 14: 0
depth 15: 0
depth 16: 0
depth 17: 0
depth 18: 0
depth 19: 0
depth 20: 0
depth 21: 0
depth 22: 0
depth 23: 0
depth 24: 0
depth 25: 0
depth 26: 0
depth 27: 0
depth 28: 0
depth 29: 0
-----------------------------
-----------------------------
	Lost due to PQ Size
-----------------------------
1858
-----------------------------
ST read accesses: 1830153
ST write accesses: 131990
PT read accesses: 25523912
PT write accesses: 2481259
FILTER read accesses: 5740638
FILTER write accesses: 969884
GHR read accesses: 1415789
GHR write accesses: 56341
GHR counter read accesses: 22909498
GHR counter write accesses: 2079892
ST tag read accesses: 820896455
ST tag write accesses: 75346033

DRAM Statistics
 CHANNEL 0
 RQ ROW_BUFFER_HIT:      30172  ROW_BUFFER_MISS:     108722
 DBUS_CONGESTED:         86
 WQ ROW_BUFFER_HIT:       9456  ROW_BUFFER_MISS:      37478  FULL:          0

 AVG_CONGESTED_CYCLE: 4
 All warmup complete: 2
Channel 0 Bank busy for read cycles: 0
Channel 0 Bank busy for write cycles: 0
Channel 0
Rank 0
0banks busy for read cycles: 104868013
0banks busy for write cycles: 24909
1banks busy for read cycles: 9787375
1banks busy for write cycles: 3707021
2banks busy for read cycles: 2399224
2banks busy for write cycles: 1032097
3banks busy for read cycles: 574578
3banks busy for write cycles: 379953
4banks busy for read cycles: 166255
4banks busy for write cycles: 189753
5banks busy for read cycles: 55643
5banks busy for write cycles: 104263
6banks busy for read cycles: 28123
6banks busy for write cycles: 65554
7banks busy for read cycles: 18122
7banks busy for write cycles: 56636
8banks busy for read cycles: 35705
8banks busy for write cycles: 80171

CPU 0 Branch Prediction Accuracy: 93.6644% MPKI: 13.4005 Average ROB Occupancy at Mispredict: 30.3658
Branch types
NOT_BRANCH: 39424064 78.8481%
BRANCH_DIRECT_JUMP: 544515 1.08903%
BRANCH_INDIRECT: 135142 0.270284%
BRANCH_CONDITIONAL: 7935882 15.8718%
BRANCH_DIRECT_CALL: 780947 1.56189%
BRANCH_INDIRECT_CALL: 187570 0.37514%
BRANCH_RETURN: 991549 1.9831%
BRANCH_OTHER: 0 0%

@sumon_overall_L1D         0         0         0         0         0         0
@Sumon_Early_by_class_L1D         0         0         0         0
@Sumon_Late_by_class_L1D         0         0         0         0

@Sumon_Early_by_cycle_L1D         0         0         0         0         0         0         0         0         0         0         0         0
@Sumon_Late_by_cycle_L1D         0         0         0         0         0         0         0         0         0         0         0         0
@Sumon_Early_stream_L1D         0         0         0         0         0         0         0         0         0         0         0         0
@Sumon_Early_CS_L1D         0         0         0         0         0         0         0         0         0         0         0         0
@Sumon_Early_CPLX_L1D         0         0         0         0         0         0         0         0         0         0         0         0
@Sumon_Late_stream_L1D         0         0         0         0         0         0         0         0         0         0         0         0
@Sumon_Late_CS_L1D         0         0         0         0         0         0         0         0         0         0         0         0
@Sumon_Late_CPLX_L1D         0         0         0         0         0         0         0         0         0         0         0         0
@sumon_overall_L2C      5190      1203       518      5709    869575    869576
@Sumon_Early_by_class_L2C         0         0         0         0
@Sumon_Late_by_class_L2C         0         0         0         0

@Sumon_Early_by_cycle_L2C      1035      1078       719       591       274       814       409       148        39        39         6        38
@Sumon_Late_by_cycle_L2C      1118        69        16         0         0         0         0         0         0         0         0         0
@Sumon_Early_stream_L2C         0         0         0         0         0         0         0         0         0         0         0         0
@Sumon_Early_CS_L2C         0         0         0         0         0         0         0         0         0         0         0         0
@Sumon_Early_CPLX_L2C         0         0         0         0         0         0         0         0         0         0         0         0
@Sumon_Late_stream_L2C         0         0         0         0         0         0         0         0         0         0         0         0
@Sumon_Late_CS_L2C         0         0         0         0         0         0         0         0         0         0         0         0
@Sumon_Late_CPLX_L2C         0         0         0         0         0         0         0         0         0         0         0         0
DRAM PAGES: 1048576
Allocated PAGES: 6644
