Initialize SIGNATURE TABLE
ST_SET: 1
ST_WAY: 256
ST_TAG_BIT: 16
ST_TAG_MASK: ffff

Initialize PATTERN TABLE
PT_SET: 512
PT_WAY: 4
SIG_DELTA_BIT: 7
C_SIG_BIT: 4
C_DELTA_BIT: 4

Initialize PREFETCH FILTER
FILTER_SET: 1024

*** ChampSim Multicore Out-of-Order Simulator ***

Warmup Instructions: 10000000
Simulation Instructions: 50000000
Number of CPUs: 1
LLC sets: 2048
LLC ways: 16
Off-chip DRAM Size: 4096 MB Channels: 1 Width: 64-bit Data Rate: 6400 MT/s
CPU 0 runs traces/clientserver/server_010.champsimtrace.xz
.xz
CPU 0 Bimodal branch predictor
BTB has LRU replacement policy
ITLB has LRU replacement policy
DTLB has LRU replacement policy
STLB has LRU replacement policy
L1I has LRU replacement policy
L1D has LRU replacement policy
ST_WAYS: 256
PT_SETS: 512
L2C has LRU replacement policy
LLC has LRU replacement policy
Heartbeat CPU 0 instructions: 10000001 cycles: 2771654 heartbeat IPC: 3.60795 cumulative IPC: 3.60795 (Simulation time: 0 hr 9 min 33 sec) 

Warmup complete CPU 0 instructions: 10000001 cycles: 2771654 (Simulation time: 0 hr 9 min 33 sec) 

Heartbeat CPU 0 instructions: 20000002 cycles: 23678854 heartbeat IPC: 0.478304 cumulative IPC: 0.478304 (Simulation time: 0 hr 25 min 5 sec) 
Heartbeat CPU 0 instructions: 30000001 cycles: 44180120 heartbeat IPC: 0.487775 cumulative IPC: 0.482993 (Simulation time: 0 hr 40 min 43 sec) 
Heartbeat CPU 0 instructions: 40000000 cycles: 64583360 heartbeat IPC: 0.490118 cumulative IPC: 0.485345 (Simulation time: 0 hr 56 min 13 sec) 
Heartbeat CPU 0 instructions: 50000000 cycles: 85253885 heartbeat IPC: 0.483781 cumulative IPC: 0.484953 (Simulation time: 1 hr 11 min 38 sec) 
Heartbeat CPU 0 instructions: 60000001 cycles: 105427342 heartbeat IPC: 0.495701 cumulative IPC: 0.487065 (Simulation time: 1 hr 26 min 33 sec) 
Finished CPU 0 instructions: 50000000 cycles: 102655688 cumulative IPC: 0.487065 (Simulation time: 1 hr 26 min 33 sec) 

ChampSim completed all CPUs

Region of Interest Statistics

CPU 0 cumulative IPC: 0.487065 instructions: 50000000 cycles: 102655688
ITLB TOTAL     ACCESS:    7878587  HIT:    7680638  MISS:     197949  HIT %:    97.4875  MISS %:    2.51249   MPKI: 3.95898
ITLB LOAD TRANSLATION ACCESS:    7878587  HIT:    7680638  MISS:     197949  HIT %:    97.4875  MISS %:    2.51249   MPKI: 3.95898
ITLB PREFETCH  REQUESTED:          0  ISSUED:          0  USEFUL:          0  USELESS:          0
ITLB USEFUL LOAD PREFETCHES:          0 PREFETCH ISSUED TO LOWER LEVEL:          0  ACCURACY: -nan
ITLB TIMELY PREFETCHES:          0 LATE PREFETCHES: 0 DROPPED PREFETCHES: 0
ITLB PREFETCHES SAME FILL-ORIGIN LEVEL: 0 DIFFERENT FILL-ORIGIN LEVEL: 0
ITLB AVERAGE MISS LATENCY: 17.2925 cycles
ITLB RQ	ACCESS:    9691668	FORWARD:          0	MERGED:    1761788	TO_CACHE:    7929880

DTLB TOTAL     ACCESS:   10010737  HIT:    9366587  MISS:     644150  HIT %:    93.5654  MISS %:    6.43459   MPKI: 12.883
DTLB LOAD TRANSLATION ACCESS:   10010737  HIT:    9366587  MISS:     644150  HIT %:    93.5654  MISS %:    6.43459   MPKI: 12.883
DTLB PREFETCH  REQUESTED:          0  ISSUED:          0  USEFUL:          0  USELESS:          0
DTLB USEFUL LOAD PREFETCHES:          0 PREFETCH ISSUED TO LOWER LEVEL:          0  ACCURACY: -nan
DTLB TIMELY PREFETCHES:          0 LATE PREFETCHES: 0 DROPPED PREFETCHES: 0
DTLB PREFETCHES SAME FILL-ORIGIN LEVEL: 0 DIFFERENT FILL-ORIGIN LEVEL: 0
DTLB AVERAGE MISS LATENCY: 15.0239 cycles
DTLB RQ	ACCESS:   12371919	FORWARD:          0	MERGED:    2324426	TO_CACHE:   10047493

STLB TOTAL     ACCESS:     842099  HIT:     721485  MISS:     120614  HIT %:     85.677  MISS %:     14.323   MPKI: 2.41228
STLB LOAD TRANSLATION ACCESS:     842099  HIT:     721485  MISS:     120614  HIT %:     85.677  MISS %:     14.323   MPKI: 2.41228
STLB PREFETCH  REQUESTED:          0  ISSUED:          0  USEFUL:          0  USELESS:          0
STLB USEFUL LOAD PREFETCHES:          0 PREFETCH ISSUED TO LOWER LEVEL:          0  ACCURACY: -nan
STLB TIMELY PREFETCHES:          0 LATE PREFETCHES: 0 DROPPED PREFETCHES: 0
STLB PREFETCHES SAME FILL-ORIGIN LEVEL: 0 DIFFERENT FILL-ORIGIN LEVEL: 0
STLB AVERAGE MISS LATENCY: 45.6698 cycles
STLB RQ	ACCESS:     842099	FORWARD:          0	MERGED:          0	TO_CACHE:     842099

STLB Hit, L1D data hit: 0
STLB Hit, L2C data hit: 0
STLB Hit, LLC data hit: 0
STLB Hit, LLC data miss: 0
STLB STLB hints to L2: 0
L1D TOTAL     ACCESS:   12226749  HIT:   11576529  MISS:     650220  HIT %:     94.682  MISS %:    5.31801   MPKI: 13.0044
L1D LOAD      ACCESS:    7219738  HIT:    6662937  MISS:     556801  HIT %:    92.2878  MISS %:    7.71221   MPKI: 11.136
L1D RFO       ACCESS:    5007011  HIT:    4913592  MISS:      93419  HIT %:    98.1342  MISS %:    1.86576   MPKI: 1.86838
L1D PREFETCH  REQUESTED:          0  ISSUED:          0  USEFUL:          0  USELESS:          0
L1D USEFUL LOAD PREFETCHES:          0 PREFETCH ISSUED TO LOWER LEVEL:          0  ACCURACY: -nan
L1D TIMELY PREFETCHES:          0 LATE PREFETCHES: 0 DROPPED PREFETCHES: 0
L1D PREFETCHES SAME FILL-ORIGIN LEVEL: 0 DIFFERENT FILL-ORIGIN LEVEL: 0
L1D AVERAGE MISS LATENCY: 38.8437 cycles
L1D RQ	ACCESS:   10646143	FORWARD:          0	MERGED:    3316464	TO_CACHE:    7250258
L1D WQ	ACCESS:    5204839	FORWARD:      79421	MERGED:      83178	TO_CACHE:    5121661

L1D UNIQUE REGIONS ACCESSED: 0
L1D REGIONS CONFLICTS: 0
L1D Cross Page Prefetch Requests: 0
L1D Same Page Prefetch Requests: 0
L1D ROI Sum of L1D PQ occupancy: 0
L1D PREFETCHES PUSHED FROM L2C: 0
L1I TOTAL     ACCESS:    9266767  HIT:    7963471  MISS:    1303296  HIT %:    85.9358  MISS %:    14.0642   MPKI: 26.0659
L1I LOAD      ACCESS:    9266767  HIT:    7963471  MISS:    1303296  HIT %:    85.9358  MISS %:    14.0642   MPKI: 26.0659
L1I PREFETCH  REQUESTED:          0  ISSUED:          0  USEFUL:          0  USELESS:          0
L1I USEFUL LOAD PREFETCHES:          0 PREFETCH ISSUED TO LOWER LEVEL:          0  ACCURACY: -nan
L1I TIMELY PREFETCHES:          0 LATE PREFETCHES: 0 DROPPED PREFETCHES: 0
L1I PREFETCHES SAME FILL-ORIGIN LEVEL: 0 DIFFERENT FILL-ORIGIN LEVEL: 0
L1I AVERAGE MISS LATENCY: 29.4743 cycles
L1I RQ	ACCESS:   13846705	FORWARD:          0	MERGED:    4155037	TO_CACHE:    9691668

BTB TOTAL     ACCESS:    4464599  HIT:    3665549  MISS:     799050  HIT %:    82.1025  MISS %:    17.8975   MPKI: 15.981
BTB BRANCH_DIRECT_JUMP	ACCESS:     455305  HIT:     390833  MISS:      64472
BTB BRANCH_INDIRECT	ACCESS:     153269  HIT:     119707  MISS:      33562
BTB BRANCH_CONDITIONAL	ACCESS:    2152760  HIT:    1888424  MISS:     264336
BTB BRANCH_DIRECT_CALL	ACCESS:     666812  HIT:     545280  MISS:     121532
BTB BRANCH_INDIRECT_CALL	ACCESS:     167985  HIT:     155714  MISS:      12271
BTB BRANCH_RETURN	ACCESS:     868468  HIT:     565591  MISS:     302877
BTB BRANCH_OTHER ACCESS:          0  HIT:          0  MISS:          0

L2C TOTAL     ACCESS:    2468758  HIT:    1408741  MISS:    1060017  HIT %:    57.0627  MISS %:    42.9373   MPKI: 21.2003
L2C LOAD      ACCESS:    1860076  HIT:     936625  MISS:     923451  HIT %:    50.3541  MISS %:    49.6459   MPKI: 18.469
L2C DATA LOAD MPKI: 6.26814
L2C INSTRUCTION LOAD MPKI: 12.2009
L2C RFO       ACCESS:      93418  HIT:      33828  MISS:      59590  HIT %:    36.2114  MISS %:    63.7886   MPKI: 1.1918
L2C PREFETCH  ACCESS:     102284  HIT:      92039  MISS:      10245  HIT %:    89.9838  MISS %:    10.0162   MPKI: 0.2049
L2C DATA PREFETCH MPKI: 0.2049
L2C INSTRUCTION PREFETCH MPKI: 0
L2C WRITEBACK ACCESS:     260095  HIT:     257632  MISS:       2463  HIT %:     99.053  MISS %:   0.946962   MPKI: 0.04926
L2C LOAD TRANSLATION ACCESS:     152885  HIT:      88617  MISS:      64268  HIT %:    57.9632  MISS %:    42.0368   MPKI: 1.28536
L2C PREFETCH  REQUESTED:     516473  ISSUED:     516465  USEFUL:       9271  USELESS:        971
L2C USEFUL LOAD PREFETCHES:       9271 PREFETCH ISSUED TO LOWER LEVEL:     406324  ACCURACY: 2.28168
L2C TIMELY PREFETCHES:       9271 LATE PREFETCHES: 1073 DROPPED PREFETCHES: 0
L2C PREFETCHES SAME FILL-ORIGIN LEVEL: 11318 DIFFERENT FILL-ORIGIN LEVEL: 395006
L2C AVERAGE MISS LATENCY: 35.9605 cycles
L2C RQ	ACCESS:    2106402	FORWARD:          0	MERGED:          0	TO_CACHE:    2106380
L2C WQ	ACCESS:     260096	FORWARD:         22	MERGED:          0	TO_CACHE:     260096
L2C PQ	ACCESS:     516465	FORWARD:          0	MERGED:       6948	TO_CACHE:     509517

L2C Instructions Evicting Data 220838
L2C Translations Evicting Data 24145
L2C Data Evicting Data 140193
L2C Instructions Evicting Instructions 351869
L2C Translations Evicting Instructions 36222
L2C Data Evicting Instructions 220072
L2C Instructions Evicting Translations 37337
L2C Translations Evicting Translations 3901
L2C Data Evicting Translations 22977
L2C Dense regions hint from L2: 0
PSCL5 TOTAL     ACCESS:     120614  HIT:     120614  MISS:          0  HIT %:        100  MISS %:          0   MPKI: 0
PSCL5 LOAD TRANSLATION ACCESS:     120614  HIT:     120614  MISS:          0  HIT %:        100  MISS %:          0   MPKI: 0
PSCL5 PREFETCH  REQUESTED:          0  ISSUED:          0  USEFUL:          0  USELESS:          0
PSCL5 USEFUL LOAD PREFETCHES:          0 PREFETCH ISSUED TO LOWER LEVEL:          0  ACCURACY: -nan
PSCL5 TIMELY PREFETCHES:          0 LATE PREFETCHES: 0 DROPPED PREFETCHES: 0
PSCL5 PREFETCHES SAME FILL-ORIGIN LEVEL: 0 DIFFERENT FILL-ORIGIN LEVEL: 0

PSCL4 TOTAL     ACCESS:     113081  HIT:     112737  MISS:        344  HIT %:    99.6958  MISS %:   0.304207   MPKI: 0.00688
PSCL4 LOAD TRANSLATION ACCESS:     113081  HIT:     112737  MISS:        344  HIT %:    99.6958  MISS %:   0.304207   MPKI: 0.00688
PSCL4 PREFETCH  REQUESTED:          0  ISSUED:          0  USEFUL:          0  USELESS:          0
PSCL4 USEFUL LOAD PREFETCHES:          0 PREFETCH ISSUED TO LOWER LEVEL:          0  ACCURACY: -nan
PSCL4 TIMELY PREFETCHES:          0 LATE PREFETCHES: 0 DROPPED PREFETCHES: 0
PSCL4 PREFETCHES SAME FILL-ORIGIN LEVEL: 0 DIFFERENT FILL-ORIGIN LEVEL: 0

PSCL3 TOTAL     ACCESS:     119695  HIT:     118696  MISS:        999  HIT %:    99.1654  MISS %:   0.834621   MPKI: 0.01998
PSCL3 LOAD TRANSLATION ACCESS:     119695  HIT:     118696  MISS:        999  HIT %:    99.1654  MISS %:   0.834621   MPKI: 0.01998
PSCL3 PREFETCH  REQUESTED:          0  ISSUED:          0  USEFUL:          0  USELESS:          0
PSCL3 USEFUL LOAD PREFETCHES:          0 PREFETCH ISSUED TO LOWER LEVEL:          0  ACCURACY: -nan
PSCL3 TIMELY PREFETCHES:          0 LATE PREFETCHES: 0 DROPPED PREFETCHES: 0
PSCL3 PREFETCHES SAME FILL-ORIGIN LEVEL: 0 DIFFERENT FILL-ORIGIN LEVEL: 0

PSCL2 TOTAL     ACCESS:     120614  HIT:      89622  MISS:      30992  HIT %:    74.3048  MISS %:    25.6952   MPKI: 0.61984
PSCL2 LOAD TRANSLATION ACCESS:     120614  HIT:      89622  MISS:      30992  HIT %:    74.3048  MISS %:    25.6952   MPKI: 0.61984
PSCL2 PREFETCH  REQUESTED:          0  ISSUED:          0  USEFUL:          0  USELESS:          0
PSCL2 USEFUL LOAD PREFETCHES:          0 PREFETCH ISSUED TO LOWER LEVEL:          0  ACCURACY: -nan
PSCL2 TIMELY PREFETCHES:          0 LATE PREFETCHES: 0 DROPPED PREFETCHES: 0
PSCL2 PREFETCHES SAME FILL-ORIGIN LEVEL: 0 DIFFERENT FILL-ORIGIN LEVEL: 0

LLC TOTAL     ACCESS:    1605997  HIT:    1506690  MISS:      99307  HIT %:    93.8165  MISS %:    6.18351   MPKI: 1.98614
LLC LOAD      ACCESS:     922377  HIT:     893177  MISS:      29200  HIT %:    96.8343  MISS %:    3.16573   MPKI: 0.584
LLC RFO       ACCESS:      59589  HIT:      49519  MISS:      10070  HIT %:    83.1009  MISS %:    16.8991   MPKI: 0.2014
LLC PREFETCH  ACCESS:     397483  HIT:     339568  MISS:      57915  HIT %:    85.4296  MISS %:    14.5704   MPKI: 1.1583
LLC WRITEBACK ACCESS:     162280  HIT:     162125  MISS:        155  HIT %:    99.9045  MISS %:  0.0955139   MPKI: 0.0031
LLC LOAD TRANSLATION ACCESS:      64268  HIT:      62301  MISS:       1967  HIT %:    96.9394  MISS %:    3.06062   MPKI: 0.03934
LLC PREFETCH  REQUESTED:          0  ISSUED:          0  USEFUL:      31057  USELESS:      26739
LLC USEFUL LOAD PREFETCHES:      31057 PREFETCH ISSUED TO LOWER LEVEL:      59065  ACCURACY: 52.5811
LLC TIMELY PREFETCHES:      31057 LATE PREFETCHES: 1150 DROPPED PREFETCHES: 0
LLC PREFETCHES SAME FILL-ORIGIN LEVEL: 58860 DIFFERENT FILL-ORIGIN LEVEL: 0
LLC AVERAGE MISS LATENCY: 153.428 cycles
LLC RQ	ACCESS:    1046237	FORWARD:          0	MERGED:          0	TO_CACHE:    1046235
LLC WQ	ACCESS:     162280	FORWARD:          3	MERGED:          0	TO_CACHE:     162280
LLC PQ	ACCESS:     406324	FORWARD:          0	MERGED:       4949	TO_CACHE:     401374

LLC Dense regions hint to LLC: 0

RAW hits: 788111
Loads Generated: 11434252
Loads sent to L1D: 10646143
Stores Generated: 5204832
Stores sent to L1D: 5204839
Major fault: 0 Minor fault: 4923
Allocated PAGES: 4923
 All Calls: 667628
 Critical Calls: 667628
------------------
Depth Distribution
------------------
depth 0: 0
depth 1: 487489
depth 2: 71134
depth 3: 38324
depth 4: 17822
depth 5: 379
depth 6: 22
depth 7: 2
depth 8: 1
depth 9: 1
depth 10: 1
depth 11: 1
depth 12: 1
depth 13: 0
depth 14: 0
depth 15: 0
depth 16: 0
depth 17: 0
depth 18: 0
depth 19: 0
depth 20: 0
depth 21: 0
depth 22: 0
depth 23: 0
depth 24: 0
depth 25: 0
depth 26: 0
depth 27: 0
depth 28: 0
depth 29: 0
Total: 615177
-----------------------------
-----------------------------
	Captured at Filter
-----------------------------
depth 0: 0
depth 1: 1681
depth 2: 201
depth 3: 41
depth 4: 14
depth 5: 2
depth 6: 0
depth 7: 0
depth 8: 0
depth 9: 0
depth 10: 0
depth 11: 0
depth 12: 0
depth 13: 0
depth 14: 0
depth 15: 0
depth 16: 0
depth 17: 0
depth 18: 0
depth 19: 0
depth 20: 0
depth 21: 0
depth 22: 0
depth 23: 0
depth 24: 0
depth 25: 0
depth 26: 0
depth 27: 0
depth 28: 0
depth 29: 0
-----------------------------
-----------------------------
		Lost at Page
-----------------------------
depth 0: 0
depth 1: 38852
depth 2: 2371
depth 3: 2002
depth 4: 1150
depth 5: 38
depth 6: 2
depth 7: 1
depth 8: 0
depth 9: 0
depth 10: 0
depth 11: 0
depth 12: 0
depth 13: 0
depth 14: 0
depth 15: 0
depth 16: 0
depth 17: 0
depth 18: 0
depth 19: 0
depth 20: 0
depth 21: 0
depth 22: 0
depth 23: 0
depth 24: 0
depth 25: 0
depth 26: 0
depth 27: 0
depth 28: 0
depth 29: 0
-----------------------------
-----------------------------
	Lost due to PQ Size
-----------------------------
1921
-----------------------------
ST read accesses: 379200
ST write accesses: 177580
PT read accesses: 6063695
PT write accesses: 443260
FILTER read accesses: 2134943
FILTER write accesses: 1091788
GHR read accesses: 1676178
GHR write accesses: 33884
GHR counter read accesses: 5421536
GHR counter write accesses: 581986
ST tag read accesses: 304981979
ST tag write accesses: 55512210

DRAM Statistics
 CHANNEL 0
 RQ ROW_BUFFER_HIT:      17952  ROW_BUFFER_MISS:      81199
 DBUS_CONGESTED:         49
 WQ ROW_BUFFER_HIT:       6686  ROW_BUFFER_MISS:      47371  FULL:          0

 AVG_CONGESTED_CYCLE: 4
 All warmup complete: 2
Channel 0 Bank busy for read cycles: 0
Channel 0 Bank busy for write cycles: 0
Channel 0
Rank 0
0banks busy for read cycles: 87164531
0banks busy for write cycles: 30015
1banks busy for read cycles: 7261032
1banks busy for write cycles: 3888326
2banks busy for read cycles: 1792239
2banks busy for write cycles: 1044860
3banks busy for read cycles: 417995
3banks busy for write cycles: 362608
4banks busy for read cycles: 136045
4banks busy for write cycles: 181758
5banks busy for read cycles: 47369
5banks busy for write cycles: 101410
6banks busy for read cycles: 15626
6banks busy for write cycles: 68749
7banks busy for read cycles: 7335
7banks busy for write cycles: 64626
8banks busy for read cycles: 6511
8banks busy for write cycles: 64654

CPU 0 Branch Prediction Accuracy: 93.0092% MPKI: 12.962 Average ROB Occupancy at Mispredict: 22.0349
Branch types
NOT_BRANCH: 40728895 81.4578%
BRANCH_DIRECT_JUMP: 455305 0.91061%
BRANCH_INDIRECT: 153269 0.306538%
BRANCH_CONDITIONAL: 6958895 13.9178%
BRANCH_DIRECT_CALL: 666812 1.33362%
BRANCH_INDIRECT_CALL: 167985 0.33597%
BRANCH_RETURN: 868468 1.73694%
BRANCH_OTHER: 0 0%

@sumon_overall_L1D         0         0         0         0         0         0
@Sumon_Early_by_class_L1D         0         0         0         0
@Sumon_Late_by_class_L1D         0         0         0         0

@Sumon_Early_by_cycle_L1D         0         0         0         0         0         0         0         0         0         0         0         0
@Sumon_Late_by_cycle_L1D         0         0         0         0         0         0         0         0         0         0         0         0
@Sumon_Early_stream_L1D         0         0         0         0         0         0         0         0         0         0         0         0
@Sumon_Early_CS_L1D         0         0         0         0         0         0         0         0         0         0         0         0
@Sumon_Early_CPLX_L1D         0         0         0         0         0         0         0         0         0         0         0         0
@Sumon_Late_stream_L1D         0         0         0         0         0         0         0         0         0         0         0         0
@Sumon_Late_CS_L1D         0         0         0         0         0         0         0         0         0         0         0         0
@Sumon_Late_CPLX_L1D         0         0         0         0         0         0         0         0         0         0         0         0
@sumon_overall_L2C      9271      1073       971     10245    516465    516473
@Sumon_Early_by_class_L2C         0         0         0         0
@Sumon_Late_by_class_L2C         0         0         0         0

@Sumon_Early_by_cycle_L2C       968      2145      1509      1132       569      1704       828       260        48        12         9        87
@Sumon_Late_by_cycle_L2C      1065         8         0         0         0         0         0         0         0         0         0         0
@Sumon_Early_stream_L2C         0         0         0         0         0         0         0         0         0         0         0         0
@Sumon_Early_CS_L2C         0         0         0         0         0         0         0         0         0         0         0         0
@Sumon_Early_CPLX_L2C         0         0         0         0         0         0         0         0         0         0         0         0
@Sumon_Late_stream_L2C         0         0         0         0         0         0         0         0         0         0         0         0
@Sumon_Late_CS_L2C         0         0         0         0         0         0         0         0         0         0         0         0
@Sumon_Late_CPLX_L2C         0         0         0         0         0         0         0         0         0         0         0         0
DRAM PAGES: 1048576
Allocated PAGES: 4923
