Initialize SIGNATURE TABLE
ST_SET: 1
ST_WAY: 256
ST_TAG_BIT: 16
ST_TAG_MASK: ffff

Initialize PATTERN TABLE
PT_SET: 512
PT_WAY: 4
SIG_DELTA_BIT: 7
C_SIG_BIT: 4
C_DELTA_BIT: 4

Initialize PREFETCH FILTER
FILTER_SET: 1024

*** ChampSim Multicore Out-of-Order Simulator ***

Warmup Instructions: 10000000
Simulation Instructions: 50000000
Number of CPUs: 1
LLC sets: 2048
LLC ways: 16
Off-chip DRAM Size: 4096 MB Channels: 1 Width: 64-bit Data Rate: 6400 MT/s
CPU 0 runs traces/clientserver/server_022.champsimtrace.xz
.xz
CPU 0 Bimodal branch predictor
BTB has LRU replacement policy
ITLB has LRU replacement policy
DTLB has LRU replacement policy
STLB has LRU replacement policy
L1I has LRU replacement policy
L1D has LRU replacement policy
ST_WAYS: 256
PT_SETS: 512
L2C has LRU replacement policy
LLC has LRU replacement policy
Heartbeat CPU 0 instructions: 10000001 cycles: 3215738 heartbeat IPC: 3.10971 cumulative IPC: 3.10971 (Simulation time: 0 hr 12 min 3 sec) 

Warmup complete CPU 0 instructions: 10000001 cycles: 3215738 (Simulation time: 0 hr 12 min 3 sec) 

Heartbeat CPU 0 instructions: 20000001 cycles: 27121833 heartbeat IPC: 0.418303 cumulative IPC: 0.418303 (Simulation time: 0 hr 35 min 27 sec) 
Heartbeat CPU 0 instructions: 30000002 cycles: 51084466 heartbeat IPC: 0.417316 cumulative IPC: 0.417809 (Simulation time: 0 hr 59 min 17 sec) 
Heartbeat CPU 0 instructions: 40000002 cycles: 74786594 heartbeat IPC: 0.421903 cumulative IPC: 0.419165 (Simulation time: 1 hr 21 min 58 sec) 
Heartbeat CPU 0 instructions: 50000002 cycles: 98934953 heartbeat IPC: 0.414107 cumulative IPC: 0.417889 (Simulation time: 1 hr 35 min 12 sec) 
Heartbeat CPU 0 instructions: 60000002 cycles: 122818634 heartbeat IPC: 0.418696 cumulative IPC: 0.41805 (Simulation time: 1 hr 39 min 57 sec) 
Finished CPU 0 instructions: 50000001 cycles: 119602896 cumulative IPC: 0.41805 (Simulation time: 1 hr 39 min 57 sec) 

ChampSim completed all CPUs

Region of Interest Statistics

CPU 0 cumulative IPC: 0.41805 instructions: 50000001 cycles: 119602896
ITLB TOTAL     ACCESS:    9054633  HIT:    8670316  MISS:     384317  HIT %:    95.7556  MISS %:    4.24442   MPKI: 7.68634
ITLB LOAD TRANSLATION ACCESS:    9054633  HIT:    8670316  MISS:     384317  HIT %:    95.7556  MISS %:    4.24442   MPKI: 7.68634
ITLB PREFETCH  REQUESTED:          0  ISSUED:          0  USEFUL:          0  USELESS:          0
ITLB USEFUL LOAD PREFETCHES:          0 PREFETCH ISSUED TO LOWER LEVEL:          0  ACCURACY: -nan
ITLB TIMELY PREFETCHES:          0 LATE PREFETCHES: 0 DROPPED PREFETCHES: 0
ITLB PREFETCHES SAME FILL-ORIGIN LEVEL: 0 DIFFERENT FILL-ORIGIN LEVEL: 0
ITLB AVERAGE MISS LATENCY: 9.30351 cycles
ITLB RQ	ACCESS:   10678623	FORWARD:          0	MERGED:    1501044	TO_CACHE:    9177579

DTLB TOTAL     ACCESS:   11740750  HIT:   11333976  MISS:     406774  HIT %:    96.5354  MISS %:    3.46463   MPKI: 8.13548
DTLB LOAD TRANSLATION ACCESS:   11740750  HIT:   11333976  MISS:     406774  HIT %:    96.5354  MISS %:    3.46463   MPKI: 8.13548
DTLB PREFETCH  REQUESTED:          0  ISSUED:          0  USEFUL:          0  USELESS:          0
DTLB USEFUL LOAD PREFETCHES:          0 PREFETCH ISSUED TO LOWER LEVEL:          0  ACCURACY: -nan
DTLB TIMELY PREFETCHES:          0 LATE PREFETCHES: 0 DROPPED PREFETCHES: 0
DTLB PREFETCHES SAME FILL-ORIGIN LEVEL: 0 DIFFERENT FILL-ORIGIN LEVEL: 0
DTLB AVERAGE MISS LATENCY: 17.4332 cycles
DTLB RQ	ACCESS:   16828308	FORWARD:          0	MERGED:    5014654	TO_CACHE:   11813654

STLB TOTAL     ACCESS:     791091  HIT:     771393  MISS:      19698  HIT %:      97.51  MISS %:    2.48998   MPKI: 0.39396
STLB LOAD TRANSLATION ACCESS:     791091  HIT:     771393  MISS:      19698  HIT %:      97.51  MISS %:    2.48998   MPKI: 0.39396
STLB PREFETCH  REQUESTED:          0  ISSUED:          0  USEFUL:          0  USELESS:          0
STLB USEFUL LOAD PREFETCHES:          0 PREFETCH ISSUED TO LOWER LEVEL:          0  ACCURACY: -nan
STLB TIMELY PREFETCHES:          0 LATE PREFETCHES: 0 DROPPED PREFETCHES: 0
STLB PREFETCHES SAME FILL-ORIGIN LEVEL: 0 DIFFERENT FILL-ORIGIN LEVEL: 0
STLB AVERAGE MISS LATENCY: 179.497 cycles
STLB RQ	ACCESS:     791091	FORWARD:          0	MERGED:          0	TO_CACHE:     791091

STLB Hit, L1D data hit: 0
STLB Hit, L2C data hit: 0
STLB Hit, LLC data hit: 0
STLB Hit, LLC data miss: 0
STLB STLB hints to L2: 0
L1D TOTAL     ACCESS:   14167342  HIT:   12360575  MISS:    1806767  HIT %:     87.247  MISS %:     12.753   MPKI: 36.1353
L1D LOAD      ACCESS:    7990319  HIT:    7171475  MISS:     818844  HIT %:     89.752  MISS %:     10.248   MPKI: 16.3769
L1D RFO       ACCESS:    6177023  HIT:    5189100  MISS:     987923  HIT %:    84.0065  MISS %:    15.9935   MPKI: 19.7585
L1D PREFETCH  REQUESTED:          0  ISSUED:          0  USEFUL:          0  USELESS:          0
L1D USEFUL LOAD PREFETCHES:          0 PREFETCH ISSUED TO LOWER LEVEL:          0  ACCURACY: -nan
L1D TIMELY PREFETCHES:          0 LATE PREFETCHES: 0 DROPPED PREFETCHES: 0
L1D PREFETCHES SAME FILL-ORIGIN LEVEL: 0 DIFFERENT FILL-ORIGIN LEVEL: 0
L1D AVERAGE MISS LATENCY: 165.531 cycles
L1D RQ	ACCESS:   11544225	FORWARD:          0	MERGED:    3378360	TO_CACHE:    8035145
L1D WQ	ACCESS:    8859606	FORWARD:     130720	MERGED:      66443	TO_CACHE:    8793163

L1D UNIQUE REGIONS ACCESSED: 0
L1D REGIONS CONFLICTS: 0
L1D Cross Page Prefetch Requests: 0
L1D Same Page Prefetch Requests: 0
L1D ROI Sum of L1D PQ occupancy: 0
L1D PREFETCHES PUSHED FROM L2C: 0
L1I TOTAL     ACCESS:    9944971  HIT:    7494255  MISS:    2450716  HIT %:    75.3572  MISS %:    24.6428   MPKI: 49.0143
L1I LOAD      ACCESS:    9944971  HIT:    7494255  MISS:    2450716  HIT %:    75.3572  MISS %:    24.6428   MPKI: 49.0143
L1I PREFETCH  REQUESTED:          0  ISSUED:          0  USEFUL:          0  USELESS:          0
L1I USEFUL LOAD PREFETCHES:          0 PREFETCH ISSUED TO LOWER LEVEL:          0  ACCURACY: -nan
L1I TIMELY PREFETCHES:          0 LATE PREFETCHES: 0 DROPPED PREFETCHES: 0
L1I PREFETCHES SAME FILL-ORIGIN LEVEL: 0 DIFFERENT FILL-ORIGIN LEVEL: 0
L1I AVERAGE MISS LATENCY: 16.7223 cycles
L1I RQ	ACCESS:   14607263	FORWARD:          0	MERGED:    3928640	TO_CACHE:   10678623

BTB TOTAL     ACCESS:    5312390  HIT:    5051460  MISS:     260930  HIT %:    95.0883  MISS %:    4.91173   MPKI: 5.2186
BTB BRANCH_DIRECT_JUMP	ACCESS:     445390  HIT:     443225  MISS:       2165
BTB BRANCH_INDIRECT	ACCESS:      48845  HIT:      48732  MISS:        113
BTB BRANCH_CONDITIONAL	ACCESS:    2983725  HIT:    2977217  MISS:       6508
BTB BRANCH_DIRECT_CALL	ACCESS:     758108  HIT:     753662  MISS:       4446
BTB BRANCH_INDIRECT_CALL	ACCESS:     159112  HIT:     129310  MISS:      29802
BTB BRANCH_RETURN	ACCESS:     917210  HIT:     699314  MISS:     217896
BTB BRANCH_OTHER ACCESS:          0  HIT:          0  MISS:          0

L2C TOTAL     ACCESS:    6069810  HIT:    4357655  MISS:    1712155  HIT %:    71.7923  MISS %:    28.2077   MPKI: 34.2431
L2C LOAD      ACCESS:    3269549  HIT:    2723375  MISS:     546174  HIT %:    83.2951  MISS %:    16.7049   MPKI: 10.9235
L2C DATA LOAD MPKI: 8.3016
L2C INSTRUCTION LOAD MPKI: 2.62188
L2C RFO       ACCESS:     987904  HIT:      26232  MISS:     961672  HIT %:    2.65532  MISS %:    97.3447   MPKI: 19.2334
L2C PREFETCH  ACCESS:     626649  HIT:     434548  MISS:     192101  HIT %:    69.3447  MISS %:    30.6553   MPKI: 3.84202
L2C DATA PREFETCH MPKI: 3.84202
L2C INSTRUCTION PREFETCH MPKI: 0
L2C WRITEBACK ACCESS:    1163854  HIT:    1161146  MISS:       2708  HIT %:    99.7673  MISS %:   0.232675   MPKI: 0.05416
L2C LOAD TRANSLATION ACCESS:      21854  HIT:      12354  MISS:       9500  HIT %:    56.5297  MISS %:    43.4703   MPKI: 0.19
L2C PREFETCH  REQUESTED:    3104143  ISSUED:    3103957  USEFUL:     189316  USELESS:       2791
L2C USEFUL LOAD PREFETCHES:     189316 PREFETCH ISSUED TO LOWER LEVEL:    2584501  ACCURACY: 7.32505
L2C TIMELY PREFETCHES:     189316 LATE PREFETCHES: 720 DROPPED PREFETCHES: 0
L2C PREFETCHES SAME FILL-ORIGIN LEVEL: 192821 DIFFERENT FILL-ORIGIN LEVEL: 2391680
L2C AVERAGE MISS LATENCY: 167.279 cycles
L2C RQ	ACCESS:    4279338	FORWARD:          0	MERGED:          0	TO_CACHE:    4279308
L2C WQ	ACCESS:    1163854	FORWARD:         32	MERGED:          0	TO_CACHE:    1163854
L2C PQ	ACCESS:    3103957	FORWARD:          0	MERGED:      51371	TO_CACHE:    3052584

L2C Instructions Evicting Data 124465
L2C Translations Evicting Data 8772
L2C Data Evicting Data 1436577
L2C Instructions Evicting Instructions 5906
L2C Translations Evicting Instructions 686
L2C Data Evicting Instructions 123526
L2C Instructions Evicting Translations 723
L2C Translations Evicting Translations 42
L2C Data Evicting Translations 8750
L2C Dense regions hint from L2: 0
PSCL5 TOTAL     ACCESS:      19698  HIT:      19698  MISS:          0  HIT %:        100  MISS %:          0   MPKI: 0
PSCL5 LOAD TRANSLATION ACCESS:      19698  HIT:      19698  MISS:          0  HIT %:        100  MISS %:          0   MPKI: 0
PSCL5 PREFETCH  REQUESTED:          0  ISSUED:          0  USEFUL:          0  USELESS:          0
PSCL5 USEFUL LOAD PREFETCHES:          0 PREFETCH ISSUED TO LOWER LEVEL:          0  ACCURACY: -nan
PSCL5 TIMELY PREFETCHES:          0 LATE PREFETCHES: 0 DROPPED PREFETCHES: 0
PSCL5 PREFETCHES SAME FILL-ORIGIN LEVEL: 0 DIFFERENT FILL-ORIGIN LEVEL: 0

PSCL4 TOTAL     ACCESS:      17973  HIT:      17952  MISS:         21  HIT %:    99.8832  MISS %:   0.116842   MPKI: 0.00042
PSCL4 LOAD TRANSLATION ACCESS:      17973  HIT:      17952  MISS:         21  HIT %:    99.8832  MISS %:   0.116842   MPKI: 0.00042
PSCL4 PREFETCH  REQUESTED:          0  ISSUED:          0  USEFUL:          0  USELESS:          0
PSCL4 USEFUL LOAD PREFETCHES:          0 PREFETCH ISSUED TO LOWER LEVEL:          0  ACCURACY: -nan
PSCL4 TIMELY PREFETCHES:          0 LATE PREFETCHES: 0 DROPPED PREFETCHES: 0
PSCL4 PREFETCHES SAME FILL-ORIGIN LEVEL: 0 DIFFERENT FILL-ORIGIN LEVEL: 0

PSCL3 TOTAL     ACCESS:      19692  HIT:      19650  MISS:         42  HIT %:    99.7867  MISS %:   0.213285   MPKI: 0.00084
PSCL3 LOAD TRANSLATION ACCESS:      19692  HIT:      19650  MISS:         42  HIT %:    99.7867  MISS %:   0.213285   MPKI: 0.00084
PSCL3 PREFETCH  REQUESTED:          0  ISSUED:          0  USEFUL:          0  USELESS:          0
PSCL3 USEFUL LOAD PREFETCHES:          0 PREFETCH ISSUED TO LOWER LEVEL:          0  ACCURACY: -nan
PSCL3 TIMELY PREFETCHES:          0 LATE PREFETCHES: 0 DROPPED PREFETCHES: 0
PSCL3 PREFETCHES SAME FILL-ORIGIN LEVEL: 0 DIFFERENT FILL-ORIGIN LEVEL: 0

PSCL2 TOTAL     ACCESS:      19698  HIT:      17574  MISS:       2124  HIT %:    89.2172  MISS %:    10.7828   MPKI: 0.04248
PSCL2 LOAD TRANSLATION ACCESS:      19698  HIT:      17574  MISS:       2124  HIT %:    89.2172  MISS %:    10.7828   MPKI: 0.04248
PSCL2 PREFETCH  REQUESTED:          0  ISSUED:          0  USEFUL:          0  USELESS:          0
PSCL2 USEFUL LOAD PREFETCHES:          0 PREFETCH ISSUED TO LOWER LEVEL:          0  ACCURACY: -nan
PSCL2 TIMELY PREFETCHES:          0 LATE PREFETCHES: 0 DROPPED PREFETCHES: 0
PSCL2 PREFETCHES SAME FILL-ORIGIN LEVEL: 0 DIFFERENT FILL-ORIGIN LEVEL: 0

LLC TOTAL     ACCESS:    4777240  HIT:    3474390  MISS:    1302850  HIT %:     72.728  MISS %:     27.272   MPKI: 26.057
LLC LOAD      ACCESS:     545453  HIT:     439706  MISS:     105747  HIT %:     80.613  MISS %:     19.387   MPKI: 2.11494
LLC RFO       ACCESS:     961672  HIT:     157674  MISS:     803998  HIT %:    16.3958  MISS %:    83.6042   MPKI: 16.08
LLC PREFETCH  ACCESS:    2158049  HIT:    1773885  MISS:     384164  HIT %:    82.1986  MISS %:    17.8014   MPKI: 7.68328
LLC WRITEBACK ACCESS:    1102566  HIT:    1100785  MISS:       1781  HIT %:    99.8385  MISS %:   0.161532   MPKI: 0.03562
LLC LOAD TRANSLATION ACCESS:       9500  HIT:       2340  MISS:       7160  HIT %:    24.6316  MISS %:    75.3684   MPKI: 0.1432
LLC PREFETCH  REQUESTED:          0  ISSUED:          0  USEFUL:     138553  USELESS:     245322
LLC USEFUL LOAD PREFETCHES:     138553 PREFETCH ISSUED TO LOWER LEVEL:     396057  ACCURACY: 34.9831
LLC TIMELY PREFETCHES:     138553 LATE PREFETCHES: 11893 DROPPED PREFETCHES: 0
LLC PREFETCHES SAME FILL-ORIGIN LEVEL: 393160 DIFFERENT FILL-ORIGIN LEVEL: 0
LLC AVERAGE MISS LATENCY: 236.89 cycles
LLC RQ	ACCESS:    1516626	FORWARD:          0	MERGED:          0	TO_CACHE:    1516625
LLC WQ	ACCESS:    1102566	FORWARD:          1	MERGED:          0	TO_CACHE:    1102566
LLC PQ	ACCESS:    2584501	FORWARD:          0	MERGED:       2139	TO_CACHE:    2582362

LLC Dense regions hint to LLC: 0

RAW hits: 894421
Loads Generated: 12438642
Loads sent to L1D: 11544225
Stores Generated: 8859604
Stores sent to L1D: 8859606
Major fault: 0 Minor fault: 15227
Allocated PAGES: 15227
 All Calls: 984191
 Critical Calls: 984191
------------------
Depth Distribution
------------------
depth 0: 0
depth 1: 755960
depth 2: 486903
depth 3: 415566
depth 4: 384210
depth 5: 365797
depth 6: 349501
depth 7: 329171
depth 8: 261049
depth 9: 211826
depth 10: 112088
depth 11: 43112
depth 12: 6265
depth 13: 5
depth 14: 0
depth 15: 0
depth 16: 0
depth 17: 0
depth 18: 0
depth 19: 0
depth 20: 0
depth 21: 0
depth 22: 0
depth 23: 0
depth 24: 0
depth 25: 0
depth 26: 0
depth 27: 0
depth 28: 0
depth 29: 0
Total: 3721453
-----------------------------
-----------------------------
	Captured at Filter
-----------------------------
depth 0: 0
depth 1: 3366
depth 2: 1142
depth 3: 951
depth 4: 807
depth 5: 829
depth 6: 834
depth 7: 861
depth 8: 768
depth 9: 700
depth 10: 409
depth 11: 144
depth 12: 16
depth 13: 0
depth 14: 0
depth 15: 0
depth 16: 0
depth 17: 0
depth 18: 0
depth 19: 0
depth 20: 0
depth 21: 0
depth 22: 0
depth 23: 0
depth 24: 0
depth 25: 0
depth 26: 0
depth 27: 0
depth 28: 0
depth 29: 0
-----------------------------
-----------------------------
		Lost at Page
-----------------------------
depth 0: 0
depth 1: 33271
depth 2: 17459
depth 3: 16851
depth 4: 20531
depth 5: 25385
depth 6: 30819
depth 7: 35779
depth 8: 33778
depth 9: 31795
depth 10: 19648
depth 11: 8670
depth 12: 1428
depth 13: 4
depth 14: 0
depth 15: 0
depth 16: 0
depth 17: 0
depth 18: 0
depth 19: 0
depth 20: 0
depth 21: 0
depth 22: 0
depth 23: 0
depth 24: 0
depth 25: 0
depth 26: 0
depth 27: 0
depth 28: 0
depth 29: 0
-----------------------------
-----------------------------
	Lost due to PQ Size
-----------------------------
760
-----------------------------
ST read accesses: 773822
ST write accesses: 45011
PT read accesses: 22160846
PT write accesses: 1072451
FILTER read accesses: 5644203
FILTER write accesses: 2156659
GHR read accesses: 1782830
GHR write accesses: 228783
GHR counter read accesses: 18155030
GHR counter write accesses: 1260852
ST tag read accesses: 338245053
ST tag write accesses: 22859186

DRAM Statistics
 CHANNEL 0
 RQ ROW_BUFFER_HIT:     441035  ROW_BUFFER_MISS:     859943
 DBUS_CONGESTED:        470
 WQ ROW_BUFFER_HIT:     241355  ROW_BUFFER_MISS:     635591  FULL:        102

 AVG_CONGESTED_CYCLE: 3
 All warmup complete: 2
Channel 0 Bank busy for read cycles: 0
Channel 0 Bank busy for write cycles: 0
Channel 0
Rank 0
0banks busy for read cycles: 41179281
0banks busy for write cycles: 46719
1banks busy for read cycles: 17322385
1banks busy for write cycles: 5894226
2banks busy for read cycles: 9816750
2banks busy for write cycles: 2996900
3banks busy for read cycles: 6514737
3banks busy for write cycles: 1914431
4banks busy for read cycles: 4105982
4banks busy for write cycles: 1489353
5banks busy for read cycles: 2275288
5banks busy for write cycles: 1260745
6banks busy for read cycles: 1708007
6banks busy for write cycles: 1216073
7banks busy for read cycles: 1930799
7banks busy for write cycles: 1946203
8banks busy for read cycles: 5854561
8banks busy for write cycles: 12130457

CPU 0 Branch Prediction Accuracy: 96.6462% MPKI: 5.50022 Average ROB Occupancy at Mispredict: 47.2917
Branch types
NOT_BRANCH: 41799589 83.5992%
BRANCH_DIRECT_JUMP: 445390 0.89078%
BRANCH_INDIRECT: 48845 0.09769%
BRANCH_CONDITIONAL: 5871404 11.7428%
BRANCH_DIRECT_CALL: 758108 1.51622%
BRANCH_INDIRECT_CALL: 159112 0.318224%
BRANCH_RETURN: 917210 1.83442%
BRANCH_OTHER: 0 0%

@sumon_overall_L1D         0         0         0         0         0         0
@Sumon_Early_by_class_L1D         0         0         0         0
@Sumon_Late_by_class_L1D         0         0         0         0

@Sumon_Early_by_cycle_L1D         0         0         0         0         0         0         0         0         0         0         0         0
@Sumon_Late_by_cycle_L1D         0         0         0         0         0         0         0         0         0         0         0         0
@Sumon_Early_stream_L1D         0         0         0         0         0         0         0         0         0         0         0         0
@Sumon_Early_CS_L1D         0         0         0         0         0         0         0         0         0         0         0         0
@Sumon_Early_CPLX_L1D         0         0         0         0         0         0         0         0         0         0         0         0
@Sumon_Late_stream_L1D         0         0         0         0         0         0         0         0         0         0         0         0
@Sumon_Late_CS_L1D         0         0         0         0         0         0         0         0         0         0         0         0
@Sumon_Late_CPLX_L1D         0         0         0         0         0         0         0         0         0         0         0         0
@sumon_overall_L2C    189316       720      2791    192101   3103957   3104143
@Sumon_Early_by_class_L2C         0         0         0         0
@Sumon_Late_by_class_L2C         0         0         0         0

@Sumon_Early_by_cycle_L2C    186598       672       313       120        14       304        58        23       967       138        61        48
@Sumon_Late_by_cycle_L2C       478       144        98         0         0         0         0         0         0         0         0         0
@Sumon_Early_stream_L2C         0         0         0         0         0         0         0         0         0         0         0         0
@Sumon_Early_CS_L2C         0         0         0         0         0         0         0         0         0         0         0         0
@Sumon_Early_CPLX_L2C         0         0         0         0         0         0         0         0         0         0         0         0
@Sumon_Late_stream_L2C         0         0         0         0         0         0         0         0         0         0         0         0
@Sumon_Late_CS_L2C         0         0         0         0         0         0         0         0         0         0         0         0
@Sumon_Late_CPLX_L2C         0         0         0         0         0         0         0         0         0         0         0         0
DRAM PAGES: 1048576
Allocated PAGES: 15227
