
*** ChampSim Multicore Out-of-Order Simulator ***

Warmup Instructions: 10000000
Simulation Instructions: 50000000
Number of CPUs: 1
LLC sets: 2048
LLC ways: 16
Off-chip DRAM Size: 4096 MB Channels: 1 Width: 64-bit Data Rate: 400 MT/s
CPU 0 runs traces/SPEC2017/649.fotonik3d_s-8225B.champsimtrace.xz
.xz
CPU 0 Bimodal branch predictor
BTB has LRU replacement policy
ITLB has LRU replacement policy
DTLB has LRU replacement policy
STLB has LRU replacement policy
L1I has LRU replacement policy
IP Table Entries: 256
L1D has LRU replacement policy
IP_Table L2 entries: 256
L2C has LRU replacement policy
LLC has LRU replacement policy
Heartbeat CPU 0 instructions: 10000001 cycles: 2903770 heartbeat IPC: 3.4438 cumulative IPC: 3.4438 (Simulation time: 0 hr 20 min 8 sec) 

Warmup complete CPU 0 instructions: 10000001 cycles: 2903770 (Simulation time: 0 hr 20 min 8 sec) 

Heartbeat CPU 0 instructions: 20000001 cycles: 18664302 heartbeat IPC: 0.634496 cumulative IPC: 0.634496 (Simulation time: 0 hr 40 min 21 sec) 
Heartbeat CPU 0 instructions: 30000000 cycles: 34340004 heartbeat IPC: 0.63793 cumulative IPC: 0.636208 (Simulation time: 1 hr 0 min 40 sec) 
Heartbeat CPU 0 instructions: 40000002 cycles: 50079521 heartbeat IPC: 0.635344 cumulative IPC: 0.63592 (Simulation time: 1 hr 20 min 54 sec) 
Heartbeat CPU 0 instructions: 50000001 cycles: 65774245 heartbeat IPC: 0.637157 cumulative IPC: 0.636229 (Simulation time: 1 hr 40 min 44 sec) 
Heartbeat CPU 0 instructions: 60000003 cycles: 81530413 heartbeat IPC: 0.634672 cumulative IPC: 0.635917 (Simulation time: 1 hr 55 min 25 sec) 
Finished CPU 0 instructions: 50000002 cycles: 78626643 cumulative IPC: 0.635917 (Simulation time: 1 hr 55 min 25 sec) 

ChampSim completed all CPUs

Region of Interest Statistics

CPU 0 cumulative IPC: 0.635917 instructions: 50000002 cycles: 78626643
ITLB TOTAL     ACCESS:    7052856  HIT:    7052856  MISS:          0  HIT %:        100  MISS %:          0   MPKI: 0
ITLB LOAD TRANSLATION ACCESS:    7052856  HIT:    7052856  MISS:          0  HIT %:        100  MISS %:          0   MPKI: 0
ITLB PREFETCH  REQUESTED:          0  ISSUED:          0  USEFUL:          0  USELESS:          0
ITLB USEFUL LOAD PREFETCHES:          0 PREFETCH ISSUED TO LOWER LEVEL:          0  ACCURACY: -nan
ITLB TIMELY PREFETCHES:          0 LATE PREFETCHES: 0 DROPPED PREFETCHES: 0
ITLB PREFETCHES SAME FILL-ORIGIN LEVEL: 0 DIFFERENT FILL-ORIGIN LEVEL: 0
ITLB AVERAGE MISS LATENCY: -nan cycles
ITLB RQ	ACCESS:    8808362	FORWARD:          0	MERGED:    1755506	TO_CACHE:    7052856

DTLB TOTAL     ACCESS:    7153714  HIT:    7141921  MISS:      11793  HIT %:    99.8351  MISS %:   0.164851   MPKI: 0.23586
DTLB LOAD TRANSLATION ACCESS:    7153714  HIT:    7141921  MISS:      11793  HIT %:    99.8351  MISS %:   0.164851   MPKI: 0.23586
DTLB PREFETCH  REQUESTED:          0  ISSUED:          0  USEFUL:          0  USELESS:          0
DTLB USEFUL LOAD PREFETCHES:          0 PREFETCH ISSUED TO LOWER LEVEL:          0  ACCURACY: -nan
DTLB TIMELY PREFETCHES:          0 LATE PREFETCHES: 0 DROPPED PREFETCHES: 0
DTLB PREFETCHES SAME FILL-ORIGIN LEVEL: 0 DIFFERENT FILL-ORIGIN LEVEL: 0
DTLB AVERAGE MISS LATENCY: 102.654 cycles
DTLB RQ	ACCESS:   11217778	FORWARD:          0	MERGED:    4063296	TO_CACHE:    7154482

STLB TOTAL     ACCESS:     605334  HIT:     598476  MISS:       6858  HIT %:    98.8671  MISS %:    1.13293   MPKI: 0.13716
STLB LOAD TRANSLATION ACCESS:      11793  HIT:       4935  MISS:       6858  HIT %:    41.8469  MISS %:    58.1531   MPKI: 0.13716
STLB TRANSLATION FROM L1D PREFETCHER ACCESS:     593541  HIT:     593541  MISS:          0  HIT %:        100  MISS %:          0   MPKI: 0
STLB PREFETCH  REQUESTED:          0  ISSUED:          0  USEFUL:          0  USELESS:          0
STLB USEFUL LOAD PREFETCHES:          0 PREFETCH ISSUED TO LOWER LEVEL:          0  ACCURACY: -nan
STLB TIMELY PREFETCHES:          0 LATE PREFETCHES: 0 DROPPED PREFETCHES: 0
STLB PREFETCHES SAME FILL-ORIGIN LEVEL: 0 DIFFERENT FILL-ORIGIN LEVEL: 0
STLB AVERAGE MISS LATENCY: 160.837 cycles
STLB RQ	ACCESS:     668954	FORWARD:          0	MERGED:      63620	TO_CACHE:     605334

STLB Hit, L1D data hit: 0
STLB Hit, L2C data hit: 0
STLB Hit, LLC data hit: 0
STLB Hit, LLC data miss: 0
STLB STLB hints to L2: 0
L1D TOTAL     ACCESS:   10886551  HIT:   10222028  MISS:     664523  HIT %:    93.8959  MISS %:    6.10407   MPKI: 13.2905
L1D LOAD      ACCESS:    7201852  HIT:    7184432  MISS:      17420  HIT %:    99.7581  MISS %:   0.241882   MPKI: 0.3484
L1D RFO       ACCESS:    3183404  HIT:    3028297  MISS:     155107  HIT %:    95.1276  MISS %:    4.87236   MPKI: 3.10214
L1D PREFETCH  ACCESS:     501295  HIT:       9299  MISS:     491996  HIT %:      1.855  MISS %:     98.145   MPKI: 9.83992
L1D PREFETCH  REQUESTED:    1314322  ISSUED:    1314322  USEFUL:     485819  USELESS:       6179
L1D USEFUL LOAD PREFETCHES:     485819 PREFETCH ISSUED TO LOWER LEVEL:     646669  ACCURACY: 75.1264
L1D TIMELY PREFETCHES:     485819 LATE PREFETCHES: 244985 DROPPED PREFETCHES: 0
L1D PREFETCHES SAME FILL-ORIGIN LEVEL: 646669 DIFFERENT FILL-ORIGIN LEVEL: 0
L1D AVERAGE MISS LATENCY: 9.82131e+06 cycles
L1D RQ	ACCESS:   17541477	FORWARD:          0	MERGED:    9833898	TO_CACHE:    7707496
L1D WQ	ACCESS:    3510282	FORWARD:         83	MERGED:          0	TO_CACHE:    3510282
L1D PQ	ACCESS:     657161	FORWARD:          0	MERGED:          0	TO_CACHE:     657161

L1D UNIQUE REGIONS ACCESSED: 0
L1D REGIONS CONFLICTS: 0
L1D Cross Page Prefetch Requests: 0
L1D Same Page Prefetch Requests: 788598
L1D ROI Sum of L1D PQ occupancy: 8642436
L1D PREFETCHES PUSHED FROM L2C: 0
L1I TOTAL     ACCESS:    8808360  HIT:    8808360  MISS:          0  HIT %:        100  MISS %:          0   MPKI: 0
L1I LOAD      ACCESS:    8808360  HIT:    8808360  MISS:          0  HIT %:        100  MISS %:          0   MPKI: 0
L1I PREFETCH  REQUESTED:          0  ISSUED:          0  USEFUL:          0  USELESS:          0
L1I USEFUL LOAD PREFETCHES:          0 PREFETCH ISSUED TO LOWER LEVEL:          0  ACCURACY: -nan
L1I TIMELY PREFETCHES:          0 LATE PREFETCHES: 0 DROPPED PREFETCHES: 0
L1I PREFETCHES SAME FILL-ORIGIN LEVEL: 0 DIFFERENT FILL-ORIGIN LEVEL: 0
L1I AVERAGE MISS LATENCY: -nan cycles
L1I RQ	ACCESS:   11501625	FORWARD:          0	MERGED:    2693263	TO_CACHE:    8808362

BTB TOTAL     ACCESS:     877293  HIT:     877284  MISS:          9  HIT %:     99.999  MISS %: 0.00102588   MPKI: 0.00018
BTB BRANCH_DIRECT_JUMP	ACCESS:        220  HIT:        218  MISS:          2
BTB BRANCH_INDIRECT	ACCESS:          0  HIT:          0  MISS:          0
BTB BRANCH_CONDITIONAL	ACCESS:     876633  HIT:     876630  MISS:          3
BTB BRANCH_DIRECT_CALL	ACCESS:        220  HIT:        218  MISS:          2
BTB BRANCH_INDIRECT_CALL	ACCESS:          0  HIT:          0  MISS:          0
BTB BRANCH_RETURN	ACCESS:        220  HIT:        218  MISS:          2
BTB BRANCH_OTHER ACCESS:          0  HIT:          0  MISS:          0

L2C TOTAL     ACCESS:    2328179  HIT:    1878616  MISS:     449563  HIT %:    80.6904  MISS %:    19.3096   MPKI: 8.99126
L2C LOAD      ACCESS:      17420  HIT:       8705  MISS:       8715  HIT %:    49.9713  MISS %:    50.0287   MPKI: 0.1743
L2C DATA LOAD MPKI: 0.1743
L2C INSTRUCTION LOAD MPKI: 0
L2C RFO       ACCESS:        661  HIT:        470  MISS:        191  HIT %:    71.1044  MISS %:    28.8956   MPKI: 0.00382
L2C PREFETCH  ACCESS:    1863881  HIT:    1424105  MISS:     439776  HIT %:    76.4054  MISS %:    23.5946   MPKI: 8.79552
L2C DATA PREFETCH MPKI: 8.79552
L2C INSTRUCTION PREFETCH MPKI: 0
L2C WRITEBACK ACCESS:     439357  HIT:     439357  MISS:          0  HIT %:        100  MISS %:          0   MPKI: 0
L2C LOAD TRANSLATION ACCESS:       6860  HIT:       5979  MISS:        881  HIT %:    87.1574  MISS %:    12.8426   MPKI: 0.01762
L2C PREFETCH  REQUESTED:    1794059  ISSUED:    1794022  USEFUL:       1959  USELESS:     438065
L2C USEFUL LOAD PREFETCHES:       1959 PREFETCH ISSUED TO LOWER LEVEL:     440414  ACCURACY: 0.444809
L2C TIMELY PREFETCHES:       1959 LATE PREFETCHES: 629 DROPPED PREFETCHES: 0
L2C PREFETCHES SAME FILL-ORIGIN LEVEL: 352069 DIFFERENT FILL-ORIGIN LEVEL: 0
L2C AVERAGE MISS LATENCY: 1262.17 cycles
L2C RQ	ACCESS:      24941	FORWARD:          0	MERGED:          0	TO_CACHE:      24941
L2C WQ	ACCESS:     439357	FORWARD:          0	MERGED:          0	TO_CACHE:     439357
L2C PQ	ACCESS:    2440471	FORWARD:          0	MERGED:      84947	TO_CACHE:    2355524

L2C Instructions Evicting Data 0
L2C Translations Evicting Data 875
L2C Data Evicting Data 447806
L2C Instructions Evicting Instructions 0
L2C Translations Evicting Instructions 0
L2C Data Evicting Instructions 0
L2C Instructions Evicting Translations 0
L2C Translations Evicting Translations 6
L2C Data Evicting Translations 876
L2C Dense regions hint from L2: 0
PSCL5 TOTAL     ACCESS:       6858  HIT:       6858  MISS:          0  HIT %:        100  MISS %:          0   MPKI: 0
PSCL5 LOAD TRANSLATION ACCESS:       6858  HIT:       6858  MISS:          0  HIT %:        100  MISS %:          0   MPKI: 0
PSCL5 PREFETCH  REQUESTED:          0  ISSUED:          0  USEFUL:          0  USELESS:          0
PSCL5 USEFUL LOAD PREFETCHES:          0 PREFETCH ISSUED TO LOWER LEVEL:          0  ACCURACY: -nan
PSCL5 TIMELY PREFETCHES:          0 LATE PREFETCHES: 0 DROPPED PREFETCHES: 0
PSCL5 PREFETCHES SAME FILL-ORIGIN LEVEL: 0 DIFFERENT FILL-ORIGIN LEVEL: 0

PSCL4 TOTAL     ACCESS:       6858  HIT:       6858  MISS:          0  HIT %:        100  MISS %:          0   MPKI: 0
PSCL4 LOAD TRANSLATION ACCESS:       6858  HIT:       6858  MISS:          0  HIT %:        100  MISS %:          0   MPKI: 0
PSCL4 PREFETCH  REQUESTED:          0  ISSUED:          0  USEFUL:          0  USELESS:          0
PSCL4 USEFUL LOAD PREFETCHES:          0 PREFETCH ISSUED TO LOWER LEVEL:          0  ACCURACY: -nan
PSCL4 TIMELY PREFETCHES:          0 LATE PREFETCHES: 0 DROPPED PREFETCHES: 0
PSCL4 PREFETCHES SAME FILL-ORIGIN LEVEL: 0 DIFFERENT FILL-ORIGIN LEVEL: 0

PSCL3 TOTAL     ACCESS:       6858  HIT:       6857  MISS:          1  HIT %:    99.9854  MISS %:  0.0145815   MPKI: 2e-05
PSCL3 LOAD TRANSLATION ACCESS:       6858  HIT:       6857  MISS:          1  HIT %:    99.9854  MISS %:  0.0145815   MPKI: 2e-05
PSCL3 PREFETCH  REQUESTED:          0  ISSUED:          0  USEFUL:          0  USELESS:          0
PSCL3 USEFUL LOAD PREFETCHES:          0 PREFETCH ISSUED TO LOWER LEVEL:          0  ACCURACY: -nan
PSCL3 TIMELY PREFETCHES:          0 LATE PREFETCHES: 0 DROPPED PREFETCHES: 0
PSCL3 PREFETCHES SAME FILL-ORIGIN LEVEL: 0 DIFFERENT FILL-ORIGIN LEVEL: 0

PSCL2 TOTAL     ACCESS:       6858  HIT:       6837  MISS:         21  HIT %:    99.6938  MISS %:   0.306212   MPKI: 0.00042
PSCL2 LOAD TRANSLATION ACCESS:       6858  HIT:       6837  MISS:         21  HIT %:    99.6938  MISS %:   0.306212   MPKI: 0.00042
PSCL2 PREFETCH  REQUESTED:          0  ISSUED:          0  USEFUL:          0  USELESS:          0
PSCL2 USEFUL LOAD PREFETCHES:          0 PREFETCH ISSUED TO LOWER LEVEL:          0  ACCURACY: -nan
PSCL2 TIMELY PREFETCHES:          0 LATE PREFETCHES: 0 DROPPED PREFETCHES: 0
PSCL2 PREFETCHES SAME FILL-ORIGIN LEVEL: 0 DIFFERENT FILL-ORIGIN LEVEL: 0

LLC TOTAL     ACCESS:     888056  HIT:     445503  MISS:     442553  HIT %:    50.1661  MISS %:    49.8339   MPKI: 8.85106
LLC LOAD      ACCESS:       8086  HIT:        327  MISS:       7759  HIT %:    4.04403  MISS %:     95.956   MPKI: 0.15518
LLC RFO       ACCESS:        191  HIT:        191  MISS:          0  HIT %:        100  MISS %:          0   MPKI: 0
LLC PREFETCH  ACCESS:     440405  HIT:       6492  MISS:     433913  HIT %:     1.4741  MISS %:    98.5259   MPKI: 8.67826
LLC WRITEBACK ACCESS:     438493  HIT:     438493  MISS:          0  HIT %:        100  MISS %:          0   MPKI: 0
LLC LOAD TRANSLATION ACCESS:        881  HIT:          0  MISS:        881  HIT %:          0  MISS %:        100   MPKI: 0.01762
LLC PREFETCH  REQUESTED:          0  ISSUED:          0  USEFUL:         29  USELESS:     433932
LLC USEFUL LOAD PREFETCHES:         29 PREFETCH ISSUED TO LOWER LEVEL:     433922  ACCURACY: 0.00668323
LLC TIMELY PREFETCHES:         29 LATE PREFETCHES: 0 DROPPED PREFETCHES: 0
LLC PREFETCHES SAME FILL-ORIGIN LEVEL: 0 DIFFERENT FILL-ORIGIN LEVEL: 0
LLC AVERAGE MISS LATENCY: 1252.57 cycles
LLC RQ	ACCESS:       9158	FORWARD:          0	MERGED:          0	TO_CACHE:       9158
LLC WQ	ACCESS:     438493	FORWARD:          0	MERGED:          0	TO_CACHE:     438493
LLC PQ	ACCESS:     440414	FORWARD:          0	MERGED:          0	TO_CACHE:     440414

LLC Dense regions hint to LLC: 0

RAW hits: 796
Loads Generated: 17542265
Loads sent to L1D: 17541477
Stores Generated: 3510286
Stores sent to L1D: 3510282
Major fault: 0 Minor fault: 8326
Allocated PAGES: 8326

stream: 
stream:times selected: 1933308
stream:pref_filled: 608637
stream:pref_useful: 602030
stream:pref_late: 23403
stream:misses: 1631
stream:misses_by_poll: 0

CS: 
CS:times selected: 1578604
CS:pref_filled: 4186
CS:pref_useful: 4109
CS:pref_late: 16
CS:misses: 398818
CS:misses_by_poll: 8

CPLX: 
CPLX:times selected: 354612
CPLX:pref_filled: 8757
CPLX:pref_useful: 8663
CPLX:pref_late: 134
CPLX:misses: 122273
CPLX:misses_by_poll: 30

NL_L1: 
NL:times selected: 27
NL:pref_filled: 1
NL:pref_useful: 1
NL:pref_late: 0
NL:misses: 11
NL:misses_by_poll: 0

total selections: 3866551
total_filled: 491996
total_useful: 485819
total_late: 23568
total_polluted: 38
total_misses_after_warmup: 523066
conflicts: 500
Degree Incremented Times: 157337
Degree Decremented Times: 0

L1 IP Table Write Accesses: 7705641
L1 IP Table Read Accesses: 7705141
L1 RST Write Accesses: 1554940
L1 RST Read Accesses: 3109880
L1 CSPT Write Accesses: 1554940
L1 CSPT Read Accesses: 2432490
L1 RR Filter Tag Write Accesses: 657161
L1 RR Filter Tag Read Accesses: 345446635
L1 IP Table Tag Write Accesses: 7707498
L1 IP Table Tag Read Accesses: 7707498
L1 RST Tag Write Accesses: 0
L1 RST Tag Read Accesses: 14019608
L1 RR Filter Write Accesses: 0
L1 RR Filter Read Accesses: 13179043
test: 48341
L2 IP Table Read Accesses: 655984
L2 IP Table Write Accesses: 639093
L2 IP Table Tag Read Accesses: 328281
L2 IP Table Tag Write Accesses: 328281

DRAM Statistics
 CHANNEL 0
 RQ ROW_BUFFER_HIT:      71804  ROW_BUFFER_MISS:     370749
 DBUS_CONGESTED:     827676
 WQ ROW_BUFFER_HIT:      67621  ROW_BUFFER_MISS:     370493  FULL:          0

 AVG_CONGESTED_CYCLE: 78
 All warmup complete: 2
Channel 0 Bank busy for read cycles: 0
Channel 0 Bank busy for write cycles: 0
Channel 0
Rank 0
0banks busy for read cycles: 14856
0banks busy for write cycles: 0
1banks busy for read cycles: 1692306
1banks busy for write cycles: 53858
2banks busy for read cycles: 1742613
2banks busy for write cycles: 53853
3banks busy for read cycles: 2136902
3banks busy for write cycles: 53850
4banks busy for read cycles: 3815593
4banks busy for write cycles: 53846
5banks busy for read cycles: 4569682
5banks busy for write cycles: 53843
6banks busy for read cycles: 5705587
6banks busy for write cycles: 53842
7banks busy for read cycles: 5396735
7banks busy for write cycles: 491906
8banks busy for read cycles: 14907755
8banks busy for write cycles: 37829617

CPU 0 Branch Prediction Accuracy: 99.9751% MPKI: 0.00438 Average ROB Occupancy at Mispredict: 128.584
Branch types
NOT_BRANCH: 49121785 98.2436%
BRANCH_DIRECT_JUMP: 220 0.00044%
BRANCH_INDIRECT: 0 0%
BRANCH_CONDITIONAL: 877402 1.7548%
BRANCH_DIRECT_CALL: 220 0.00044%
BRANCH_INDIRECT_CALL: 0 0%
BRANCH_RETURN: 220 0.00044%
BRANCH_OTHER: 0 0%

@sumon_overall_L1D    485819    244985      6179    491996   1314322   1314322
@Sumon_Early_by_class_L1D    480180       832      4718         0
@Sumon_Late_by_class_L1D     23349        16       134         0

@Sumon_Early_by_cycle_L1D     63759     34867     58678     60567      5072    207859     54816       187        14         0         0         0
@Sumon_Late_by_cycle_L1D     21540        46       118       349       616       831        11         3         0         0         0         0
@Sumon_Early_stream_L1D     63387     34454     57965     59915      4821    205720     53869        49         0         0         0         0
@Sumon_Early_CS_L1D        42        47        80       123        34       345       130        31         0         0         0         0
@Sumon_Early_CPLX_L1D       290       345       618       524       217      1788       815       107        14         0         0         0
@Sumon_Late_stream_L1D     21418        40       113       334       602       828        11         3         0         0         0         0
@Sumon_Late_CS_L1D        12         3         0         1         0         0         0         0         0         0         0         0
@Sumon_Late_CPLX_L1D        97         3         5        14        12         3         0         0         0         0         0         0
@sumon_overall_L2C      1959       629    438065    439776   1794022   1794059
@Sumon_Early_by_class_L2C      1932        15         4         0
@Sumon_Late_by_class_L2C       606         0         0         0

@Sumon_Early_by_cycle_L2C       319       168       139        19         7        88        30         1         0         0         0      1188
@Sumon_Late_by_cycle_L2C       310        26       125        47        94        27         0         0         0         0         0         0
@Sumon_Early_stream_L2C       319       168       139        19         7        88        30         0         0         0         0      1162
@Sumon_Early_CS_L2C         0         0         0         0         0         0         0         0         0         0         0        15
@Sumon_Early_CPLX_L2C         0         0         0         0         0         0         0         0         0         0         0         4
@Sumon_Late_stream_L2C       289        26       123        47        94        27         0         0         0         0         0         0
@Sumon_Late_CS_L2C         0         0         0         0         0         0         0         0         0         0         0         0
@Sumon_Late_CPLX_L2C         0         0         0         0         0         0         0         0         0         0         0         0
DRAM PAGES: 1048576
Allocated PAGES: 8326
