
*** ChampSim Multicore Out-of-Order Simulator ***

Warmup Instructions: 10000000
Simulation Instructions: 50000000
Number of CPUs: 1
LLC sets: 2048
LLC ways: 16
Off-chip DRAM Size: 4096 MB Channels: 1 Width: 64-bit Data Rate: 6400 MT/s
CPU 0 runs traces/clientserver/client_006.champsimtrace.xz
.xz
CPU 0 Bimodal branch predictor
BTB has LRU replacement policy
ITLB has LRU replacement policy
DTLB has LRU replacement policy
STLB has LRU replacement policy
L1I has LRU replacement policy
IP Table Entries: 256
Initialize SRRIP state for L1D
IP_Table L2 entries: 256
Initialize SRRIP state for L2C
LLC has LRU replacement policy
Heartbeat CPU 0 instructions: 10000001 cycles: 3364445 heartbeat IPC: 2.97226 cumulative IPC: 2.97226 (Simulation time: 0 hr 11 min 25 sec) 

Warmup complete CPU 0 instructions: 10000001 cycles: 3364445 (Simulation time: 0 hr 11 min 25 sec) 

Heartbeat CPU 0 instructions: 20000000 cycles: 19784016 heartbeat IPC: 0.609029 cumulative IPC: 0.609029 (Simulation time: 0 hr 21 min 0 sec) 
Heartbeat CPU 0 instructions: 30000003 cycles: 37144218 heartbeat IPC: 0.57603 cumulative IPC: 0.59207 (Simulation time: 0 hr 28 min 49 sec) 
Heartbeat CPU 0 instructions: 40000000 cycles: 53636850 heartbeat IPC: 0.606331 cumulative IPC: 0.596749 (Simulation time: 0 hr 37 min 14 sec) 
Heartbeat CPU 0 instructions: 50000003 cycles: 72277316 heartbeat IPC: 0.536467 cumulative IPC: 0.580443 (Simulation time: 0 hr 47 min 11 sec) 
Heartbeat CPU 0 instructions: 60000002 cycles: 89184943 heartbeat IPC: 0.591449 cumulative IPC: 0.582611 (Simulation time: 0 hr 51 min 24 sec) 
Finished CPU 0 instructions: 50000001 cycles: 85820498 cumulative IPC: 0.582611 (Simulation time: 0 hr 51 min 24 sec) 

ChampSim completed all CPUs

Region of Interest Statistics

CPU 0 cumulative IPC: 0.582611 instructions: 50000001 cycles: 85820498
ITLB TOTAL     ACCESS:    7915595  HIT:    7775854  MISS:     139741  HIT %:    98.2346  MISS %:    1.76539   MPKI: 2.79482
ITLB LOAD TRANSLATION ACCESS:    7915595  HIT:    7775854  MISS:     139741  HIT %:    98.2346  MISS %:    1.76539   MPKI: 2.79482
ITLB PREFETCH  REQUESTED:          0  ISSUED:          0  USEFUL:          0  USELESS:          0
ITLB USEFUL LOAD PREFETCHES:          0 PREFETCH ISSUED TO LOWER LEVEL:          0  ACCURACY: -nan
ITLB TIMELY PREFETCHES:          0 LATE PREFETCHES: 0 DROPPED PREFETCHES: 0
ITLB PREFETCHES SAME FILL-ORIGIN LEVEL: 0 DIFFERENT FILL-ORIGIN LEVEL: 0
ITLB AVERAGE MISS LATENCY: 11.69 cycles
ITLB RQ	ACCESS:    9523818	FORWARD:          0	MERGED:    1591850	TO_CACHE:    7931968

DTLB TOTAL     ACCESS:   11094628  HIT:   10741478  MISS:     353150  HIT %:    96.8169  MISS %:    3.18307   MPKI: 7.063
DTLB LOAD TRANSLATION ACCESS:   11094628  HIT:   10741478  MISS:     353150  HIT %:    96.8169  MISS %:    3.18307   MPKI: 7.063
DTLB PREFETCH  REQUESTED:          0  ISSUED:          0  USEFUL:          0  USELESS:          0
DTLB USEFUL LOAD PREFETCHES:          0 PREFETCH ISSUED TO LOWER LEVEL:          0  ACCURACY: -nan
DTLB TIMELY PREFETCHES:          0 LATE PREFETCHES: 0 DROPPED PREFETCHES: 0
DTLB PREFETCHES SAME FILL-ORIGIN LEVEL: 0 DIFFERENT FILL-ORIGIN LEVEL: 0
DTLB AVERAGE MISS LATENCY: 17.9127 cycles
DTLB RQ	ACCESS:   13145139	FORWARD:          0	MERGED:    2035539	TO_CACHE:   11109600

STLB TOTAL     ACCESS:    1091340  HIT:    1066708  MISS:      24632  HIT %:     97.743  MISS %:    2.25704   MPKI: 0.49264
STLB LOAD TRANSLATION ACCESS:     492890  HIT:     468258  MISS:      24632  HIT %:    95.0025  MISS %:    4.99746   MPKI: 0.49264
STLB TRANSLATION FROM L1D PREFETCHER ACCESS:     598450  HIT:     598450  MISS:          0  HIT %:        100  MISS %:          0   MPKI: 0
STLB PREFETCH  REQUESTED:          0  ISSUED:          0  USEFUL:          0  USELESS:          0
STLB USEFUL LOAD PREFETCHES:          0 PREFETCH ISSUED TO LOWER LEVEL:          0  ACCURACY: -nan
STLB TIMELY PREFETCHES:          0 LATE PREFETCHES: 0 DROPPED PREFETCHES: 0
STLB PREFETCHES SAME FILL-ORIGIN LEVEL: 0 DIFFERENT FILL-ORIGIN LEVEL: 0
STLB AVERAGE MISS LATENCY: 141.927 cycles
STLB RQ	ACCESS:    1304183	FORWARD:          0	MERGED:     212843	TO_CACHE:    1091340

STLB Hit, L1D data hit: 0
STLB Hit, L2C data hit: 0
STLB Hit, LLC data hit: 0
STLB Hit, LLC data miss: 0
STLB STLB hints to L2: 0
L1D TOTAL     ACCESS:   13618968  HIT:   12694920  MISS:     924048  HIT %:     93.215  MISS %:    6.78501   MPKI: 18.481
L1D LOAD      ACCESS:    8673947  HIT:    8154274  MISS:     519673  HIT %:    94.0088  MISS %:    5.99119   MPKI: 10.3935
L1D RFO       ACCESS:    4274912  HIT:    4205110  MISS:      69802  HIT %:    98.3672  MISS %:    1.63283   MPKI: 1.39604
L1D PREFETCH  ACCESS:     670109  HIT:     335536  MISS:     334573  HIT %:    50.0719  MISS %:    49.9281   MPKI: 6.69146
L1D PREFETCH  REQUESTED:    1622829  ISSUED:    1622717  USEFUL:     168490  USELESS:     166138
L1D USEFUL LOAD PREFETCHES:     168490 PREFETCH ISSUED TO LOWER LEVEL:     440656  ACCURACY: 38.2362
L1D TIMELY PREFETCHES:     168490 LATE PREFETCHES: 102812 DROPPED PREFETCHES: 0
L1D PREFETCHES SAME FILL-ORIGIN LEVEL: 440656 DIFFERENT FILL-ORIGIN LEVEL: 0
L1D AVERAGE MISS LATENCY: 4.38464e+06 cycles
L1D RQ	ACCESS:   12127285	FORWARD:          0	MERGED:    3337997	TO_CACHE:    8722965
L1D WQ	ACCESS:    4484002	FORWARD:      66454	MERGED:      61828	TO_CACHE:    4422174
L1D PQ	ACCESS:     811424	FORWARD:          0	MERGED:          0	TO_CACHE:     811293

L1D UNIQUE REGIONS ACCESSED: 0
L1D REGIONS CONFLICTS: 0
L1D Cross Page Prefetch Requests: 0
L1D Same Page Prefetch Requests: 1141991
L1D ROI Sum of L1D PQ occupancy: 10902027
L1D PREFETCHES PUSHED FROM L2C: 0
L1I TOTAL     ACCESS:    9262460  HIT:    8530158  MISS:     732302  HIT %:    92.0939  MISS %:    7.90613   MPKI: 14.646
L1I LOAD      ACCESS:    9262460  HIT:    8530158  MISS:     732302  HIT %:    92.0939  MISS %:    7.90613   MPKI: 14.646
L1I PREFETCH  REQUESTED:          0  ISSUED:          0  USEFUL:          0  USELESS:          0
L1I USEFUL LOAD PREFETCHES:          0 PREFETCH ISSUED TO LOWER LEVEL:          0  ACCURACY: -nan
L1I TIMELY PREFETCHES:          0 LATE PREFETCHES: 0 DROPPED PREFETCHES: 0
L1I PREFETCHES SAME FILL-ORIGIN LEVEL: 0 DIFFERENT FILL-ORIGIN LEVEL: 0
L1I AVERAGE MISS LATENCY: 20.3595 cycles
L1I RQ	ACCESS:   13564495	FORWARD:          0	MERGED:    4040677	TO_CACHE:    9523818

BTB TOTAL     ACCESS:    5171861  HIT:    4886345  MISS:     285516  HIT %:    94.4794  MISS %:    5.52057   MPKI: 5.71032
BTB BRANCH_DIRECT_JUMP	ACCESS:     468887  HIT:     465580  MISS:       3307
BTB BRANCH_INDIRECT	ACCESS:      51898  HIT:      32201  MISS:      19697
BTB BRANCH_CONDITIONAL	ACCESS:    3126383  HIT:    3119589  MISS:       6794
BTB BRANCH_DIRECT_CALL	ACCESS:     511782  HIT:     508568  MISS:       3214
BTB BRANCH_INDIRECT_CALL	ACCESS:     249632  HIT:     190154  MISS:      59478
BTB BRANCH_RETURN	ACCESS:     763279  HIT:     570253  MISS:     193026
BTB BRANCH_OTHER ACCESS:          0  HIT:          0  MISS:          0

L2C TOTAL     ACCESS:    2204489  HIT:    1695613  MISS:     508876  HIT %:    76.9164  MISS %:    23.0836   MPKI: 10.1775
L2C LOAD      ACCESS:    1149161  HIT:     951028  MISS:     198133  HIT %:    82.7585  MISS %:    17.2415   MPKI: 3.96266
L2C DATA LOAD MPKI: 3.21172
L2C INSTRUCTION LOAD MPKI: 0.75094
L2C RFO       ACCESS:      66734  HIT:      20568  MISS:      46166  HIT %:    30.8209  MISS %:    69.1791   MPKI: 0.92332
L2C PREFETCH  ACCESS:     739236  HIT:     492753  MISS:     246483  HIT %:    66.6571  MISS %:    33.3429   MPKI: 4.92966
L2C DATA PREFETCH MPKI: 4.92966
L2C INSTRUCTION PREFETCH MPKI: 0
L2C WRITEBACK ACCESS:     222023  HIT:     217336  MISS:       4687  HIT %:     97.889  MISS %:    2.11104   MPKI: 0.09374
L2C LOAD TRANSLATION ACCESS:      27335  HIT:      13928  MISS:      13407  HIT %:     50.953  MISS %:     49.047   MPKI: 0.26814
L2C PREFETCH  REQUESTED:     566317  ISSUED:     564010  USEFUL:      23545  USELESS:     222327
L2C USEFUL LOAD PREFETCHES:      23545 PREFETCH ISSUED TO LOWER LEVEL:     256126  ACCURACY: 9.19274
L2C TIMELY PREFETCHES:      23545 LATE PREFETCHES: 9643 DROPPED PREFETCHES: 0
L2C PREFETCHES SAME FILL-ORIGIN LEVEL: 126425 DIFFERENT FILL-ORIGIN LEVEL: 0
L2C AVERAGE MISS LATENCY: 122.154 cycles
L2C RQ	ACCESS:    1243241	FORWARD:          0	MERGED:          0	TO_CACHE:    1243230
L2C WQ	ACCESS:     222023	FORWARD:         17	MERGED:          0	TO_CACHE:     222023
L2C PQ	ACCESS:    1004454	FORWARD:          0	MERGED:     175161	TO_CACHE:     829287

L2C Instructions Evicting Data 31708
L2C Translations Evicting Data 11826
L2C Data Evicting Data 410476
L2C Instructions Evicting Instructions 4714
L2C Translations Evicting Instructions 1185
L2C Data Evicting Instructions 31127
L2C Instructions Evicting Translations 1125
L2C Translations Evicting Translations 396
L2C Data Evicting Translations 11632
L2C Dense regions hint from L2: 0
PSCL5 TOTAL     ACCESS:      24632  HIT:      24632  MISS:          0  HIT %:        100  MISS %:          0   MPKI: 0
PSCL5 LOAD TRANSLATION ACCESS:      24632  HIT:      24632  MISS:          0  HIT %:        100  MISS %:          0   MPKI: 0
PSCL5 PREFETCH  REQUESTED:          0  ISSUED:          0  USEFUL:          0  USELESS:          0
PSCL5 USEFUL LOAD PREFETCHES:          0 PREFETCH ISSUED TO LOWER LEVEL:          0  ACCURACY: -nan
PSCL5 TIMELY PREFETCHES:          0 LATE PREFETCHES: 0 DROPPED PREFETCHES: 0
PSCL5 PREFETCHES SAME FILL-ORIGIN LEVEL: 0 DIFFERENT FILL-ORIGIN LEVEL: 0

PSCL4 TOTAL     ACCESS:      22468  HIT:      22443  MISS:         25  HIT %:    99.8887  MISS %:   0.111269   MPKI: 0.0005
PSCL4 LOAD TRANSLATION ACCESS:      22468  HIT:      22443  MISS:         25  HIT %:    99.8887  MISS %:   0.111269   MPKI: 0.0005
PSCL4 PREFETCH  REQUESTED:          0  ISSUED:          0  USEFUL:          0  USELESS:          0
PSCL4 USEFUL LOAD PREFETCHES:          0 PREFETCH ISSUED TO LOWER LEVEL:          0  ACCURACY: -nan
PSCL4 TIMELY PREFETCHES:          0 LATE PREFETCHES: 0 DROPPED PREFETCHES: 0
PSCL4 PREFETCHES SAME FILL-ORIGIN LEVEL: 0 DIFFERENT FILL-ORIGIN LEVEL: 0

PSCL3 TOTAL     ACCESS:      24571  HIT:      24494  MISS:         77  HIT %:    99.6866  MISS %:   0.313378   MPKI: 0.00154
PSCL3 LOAD TRANSLATION ACCESS:      24571  HIT:      24494  MISS:         77  HIT %:    99.6866  MISS %:   0.313378   MPKI: 0.00154
PSCL3 PREFETCH  REQUESTED:          0  ISSUED:          0  USEFUL:          0  USELESS:          0
PSCL3 USEFUL LOAD PREFETCHES:          0 PREFETCH ISSUED TO LOWER LEVEL:          0  ACCURACY: -nan
PSCL3 TIMELY PREFETCHES:          0 LATE PREFETCHES: 0 DROPPED PREFETCHES: 0
PSCL3 PREFETCHES SAME FILL-ORIGIN LEVEL: 0 DIFFERENT FILL-ORIGIN LEVEL: 0

PSCL2 TOTAL     ACCESS:      24632  HIT:      21901  MISS:       2731  HIT %:    88.9128  MISS %:    11.0872   MPKI: 0.05462
PSCL2 LOAD TRANSLATION ACCESS:      24632  HIT:      21901  MISS:       2731  HIT %:    88.9128  MISS %:    11.0872   MPKI: 0.05462
PSCL2 PREFETCH  REQUESTED:          0  ISSUED:          0  USEFUL:          0  USELESS:          0
PSCL2 USEFUL LOAD PREFETCHES:          0 PREFETCH ISSUED TO LOWER LEVEL:          0  ACCURACY: -nan
PSCL2 TIMELY PREFETCHES:          0 LATE PREFETCHES: 0 DROPPED PREFETCHES: 0
PSCL2 PREFETCHES SAME FILL-ORIGIN LEVEL: 0 DIFFERENT FILL-ORIGIN LEVEL: 0

LLC TOTAL     ACCESS:     641080  HIT:     363651  MISS:     277429  HIT %:    56.7247  MISS %:    43.2753   MPKI: 5.54858
LLC LOAD      ACCESS:     188504  HIT:      61304  MISS:     127200  HIT %:    32.5213  MISS %:    67.4787   MPKI: 2.544
LLC RFO       ACCESS:      46152  HIT:       9380  MISS:      36772  HIT %:    20.3241  MISS %:    79.6759   MPKI: 0.73544
LLC PREFETCH  ACCESS:     256126  HIT:     151498  MISS:     104628  HIT %:    59.1498  MISS %:    40.8502   MPKI: 2.09256
LLC WRITEBACK ACCESS:     136891  HIT:     135520  MISS:       1371  HIT %:    98.9985  MISS %:    1.00153   MPKI: 0.02742
LLC LOAD TRANSLATION ACCESS:      13407  HIT:       5949  MISS:       7458  HIT %:    44.3723  MISS %:    55.6277   MPKI: 0.14916
LLC PREFETCH  REQUESTED:          0  ISSUED:          0  USEFUL:       3117  USELESS:     102744
LLC USEFUL LOAD PREFETCHES:       3117 PREFETCH ISSUED TO LOWER LEVEL:     104628  ACCURACY: 2.97913
LLC TIMELY PREFETCHES:       3117 LATE PREFETCHES: 0 DROPPED PREFETCHES: 0
LLC PREFETCHES SAME FILL-ORIGIN LEVEL: 0 DIFFERENT FILL-ORIGIN LEVEL: 0
LLC AVERAGE MISS LATENCY: 170.796 cycles
LLC RQ	ACCESS:     248063	FORWARD:          0	MERGED:          0	TO_CACHE:     248063
LLC WQ	ACCESS:     136891	FORWARD:          0	MERGED:          0	TO_CACHE:     136891
LLC PQ	ACCESS:     256126	FORWARD:          0	MERGED:          0	TO_CACHE:     256126

LLC Dense regions hint to LLC: 0

RAW hits: 824677
Loads Generated: 12951965
Loads sent to L1D: 12127285
Stores Generated: 4483996
Stores sent to L1D: 4484002
Major fault: 0 Minor fault: 9084
Allocated PAGES: 9084

stream: 
stream:times selected: 1260733
stream:pref_filled: 224384
stream:pref_useful: 43981
stream:pref_late: 7261
stream:misses: 25534
stream:misses_by_poll: 0

CS: 
CS:times selected: 388847
CS:pref_filled: 188811
CS:pref_useful: 170812
CS:pref_late: 91335
CS:misses: 108815
CS:misses_by_poll: 73

CPLX: 
CPLX:times selected: 867715
CPLX:pref_filled: 55537
CPLX:pref_useful: 13322
CPLX:pref_late: 2533
CPLX:misses: 115607
CPLX:misses_by_poll: 38

NL_L1: 
NL:times selected: 6547
NL:pref_filled: 1072
NL:pref_useful: 712
NL:pref_late: 55
NL:misses: 1017
NL:misses_by_poll: 0

total selections: 2523842
total_filled: 334573
total_useful: 168490
total_late: 105395
total_polluted: 111
total_misses_after_warmup: 568694
conflicts: 1866636
Degree Incremented Times: 41364
Degree Decremented Times: 195496

L1 IP Table Write Accesses: 6208657
L1 IP Table Read Accesses: 4342021
L1 RST Write Accesses: 942570
L1 RST Read Accesses: 1885140
L1 CSPT Write Accesses: 942570
L1 CSPT Read Accesses: 1581513
L1 RR Filter Tag Write Accesses: 811536
L1 RR Filter Tag Read Accesses: 59526516
L1 IP Table Tag Write Accesses: 8722968
L1 IP Table Tag Read Accesses: 8722968
L1 RST Tag Write Accesses: 0
L1 RST Tag Read Accesses: 8423560
L1 RR Filter Write Accesses: 0
L1 RR Filter Read Accesses: 2037055
test: 345897
L2 IP Table Read Accesses: 1362326
L2 IP Table Write Accesses: 1153883
L2 IP Table Tag Read Accesses: 749819
L2 IP Table Tag Write Accesses: 749819

DRAM Statistics
 CHANNEL 0
 RQ ROW_BUFFER_HIT:      65481  ROW_BUFFER_MISS:     210562
 DBUS_CONGESTED:        115
 WQ ROW_BUFFER_HIT:      26605  ROW_BUFFER_MISS:      97508  FULL:          0

 AVG_CONGESTED_CYCLE: 4
 All warmup complete: 2
Channel 0 Bank busy for read cycles: 0
Channel 0 Bank busy for write cycles: 0
Channel 0
Rank 0
0banks busy for read cycles: 55887832
0banks busy for write cycles: 37870
1banks busy for read cycles: 10799874
1banks busy for write cycles: 4818996
2banks busy for read cycles: 5062673
2banks busy for write cycles: 2034152
3banks busy for read cycles: 2086572
3banks busy for write cycles: 1043416
4banks busy for read cycles: 818357
4banks busy for write cycles: 618111
5banks busy for read cycles: 282811
5banks busy for write cycles: 412712
6banks busy for read cycles: 131462
6banks busy for write cycles: 301897
7banks busy for read cycles: 77611
7banks busy for write cycles: 296449
8banks busy for read cycles: 223805
8banks busy for write cycles: 885899

CPU 0 Branch Prediction Accuracy: 95.4558% MPKI: 7.81132 Average ROB Occupancy at Mispredict: 48.0714
Branch types
NOT_BRANCH: 41404794 82.8096%
BRANCH_DIRECT_JUMP: 468887 0.937774%
BRANCH_INDIRECT: 51898 0.103796%
BRANCH_CONDITIONAL: 6549378 13.0988%
BRANCH_DIRECT_CALL: 511782 1.02356%
BRANCH_INDIRECT_CALL: 249632 0.499264%
BRANCH_RETURN: 763279 1.52656%
BRANCH_OTHER: 0 0%

@sumon_overall_L1D    168490    102812    166138    334573   1622717   1622829
@Sumon_Early_by_class_L1D     32290    123149     11046        54
@Sumon_Late_by_class_L1D      7122     88973      2465        54

@Sumon_Early_by_cycle_L1D     98130     34143      7809      6046      2496      7550      5739      2403      1799      1461       514       400
@Sumon_Late_by_cycle_L1D     97543      3573      1599        97         0         0         0         0         0         0         0         0
@Sumon_Early_stream_L1D     16853      4515      1950      1168       803      2611      1312       989       866       655       291       277
@Sumon_Early_CS_L1D     77180     27466      4845      4424      1339      3029      3249       844       412       287        45        29
@Sumon_Early_CPLX_L1D      3577      1975       937       396       279      1077      1103       501       467       479       169        86
@Sumon_Late_stream_L1D      4327      2654       134         7         0         0         0         0         0         0         0         0
@Sumon_Late_CS_L1D     86737       743      1406        87         0         0         0         0         0         0         0         0
@Sumon_Late_CPLX_L1D      2263       140        59         3         0         0         0         0         0         0         0         0
@sumon_overall_L2C     23545      9643    222327    246483    564010    566317
@Sumon_Early_by_class_L2C      1670      3805      1039         0
@Sumon_Late_by_class_L2C         0      5873         0         0

@Sumon_Early_by_cycle_L2C      4660      2454      1220       662       739      3217      2018      1501       702      1132      1189      4051
@Sumon_Late_by_cycle_L2C      6058      1513      2015        57         0         0         0         0         0         0         0         0
@Sumon_Early_stream_L2C         0         0         0         3         0        10         9        21        46       131       331      1119
@Sumon_Early_CS_L2C      1871       184        46        51        52       175        94       113       136       140       201       742
@Sumon_Early_CPLX_L2C         0         0         0         1         0         4         8        10        27        92       172       725
@Sumon_Late_stream_L2C         0         0         0         0         0         0         0         0         0         0         0         0
@Sumon_Late_CS_L2C      3529       286      2002        56         0         0         0         0         0         0         0         0
@Sumon_Late_CPLX_L2C         0         0         0         0         0         0         0         0         0         0         0         0
DRAM PAGES: 1048576
Allocated PAGES: 9084
