
*** ChampSim Multicore Out-of-Order Simulator ***

Warmup Instructions: 10000000
Simulation Instructions: 50000000
Number of CPUs: 1
LLC sets: 2048
LLC ways: 16
Off-chip DRAM Size: 4096 MB Channels: 1 Width: 64-bit Data Rate: 6400 MT/s
CPU 0 runs traces/clientserver/client_001.champsimtrace.xz
.xz
CPU 0 Bimodal branch predictor
BTB has LRU replacement policy
ITLB has LRU replacement policy
DTLB has LRU replacement policy
STLB has LRU replacement policy
L1I has LRU replacement policy
IP Table Entries: 256
Initialize SRRIP state for L1D
IP_Table L2 entries: 256
Initialize SRRIP state for L2C
LLC has LRU replacement policy
Heartbeat CPU 0 instructions: 10000003 cycles: 2872042 heartbeat IPC: 3.48184 cumulative IPC: 3.48184 (Simulation time: 0 hr 8 min 46 sec) 

Warmup complete CPU 0 instructions: 10000003 cycles: 2872042 (Simulation time: 0 hr 8 min 46 sec) 

Heartbeat CPU 0 instructions: 20000001 cycles: 18224261 heartbeat IPC: 0.651371 cumulative IPC: 0.651371 (Simulation time: 0 hr 17 min 17 sec) 
Heartbeat CPU 0 instructions: 30000002 cycles: 33756103 heartbeat IPC: 0.643839 cumulative IPC: 0.647583 (Simulation time: 0 hr 25 min 17 sec) 
Heartbeat CPU 0 instructions: 40000002 cycles: 50284497 heartbeat IPC: 0.605019 cumulative IPC: 0.632745 (Simulation time: 0 hr 34 min 36 sec) 
Heartbeat CPU 0 instructions: 50000003 cycles: 65046178 heartbeat IPC: 0.67743 cumulative IPC: 0.643354 (Simulation time: 0 hr 42 min 28 sec) 
Heartbeat CPU 0 instructions: 60000000 cycles: 82918862 heartbeat IPC: 0.559513 cumulative IPC: 0.624634 (Simulation time: 0 hr 50 min 26 sec) 
Finished CPU 0 instructions: 50000001 cycles: 80046821 cumulative IPC: 0.624634 (Simulation time: 0 hr 50 min 26 sec) 

ChampSim completed all CPUs

Region of Interest Statistics

CPU 0 cumulative IPC: 0.624634 instructions: 50000001 cycles: 80046821
ITLB TOTAL     ACCESS:    7955993  HIT:    7901997  MISS:      53996  HIT %:    99.3213  MISS %:   0.678683   MPKI: 1.07992
ITLB LOAD TRANSLATION ACCESS:    7955993  HIT:    7901997  MISS:      53996  HIT %:    99.3213  MISS %:   0.678683   MPKI: 1.07992
ITLB PREFETCH  REQUESTED:          0  ISSUED:          0  USEFUL:          0  USELESS:          0
ITLB USEFUL LOAD PREFETCHES:          0 PREFETCH ISSUED TO LOWER LEVEL:          0  ACCURACY: -nan
ITLB TIMELY PREFETCHES:          0 LATE PREFETCHES: 0 DROPPED PREFETCHES: 0
ITLB PREFETCHES SAME FILL-ORIGIN LEVEL: 0 DIFFERENT FILL-ORIGIN LEVEL: 0
ITLB AVERAGE MISS LATENCY: 11.0494 cycles
ITLB RQ	ACCESS:    9595794	FORWARD:          0	MERGED:    1629883	TO_CACHE:    7965911

DTLB TOTAL     ACCESS:   11423979  HIT:   11094327  MISS:     329652  HIT %:    97.1144  MISS %:    2.88561   MPKI: 6.59304
DTLB LOAD TRANSLATION ACCESS:   11423979  HIT:   11094327  MISS:     329652  HIT %:    97.1144  MISS %:    2.88561   MPKI: 6.59304
DTLB PREFETCH  REQUESTED:          0  ISSUED:          0  USEFUL:          0  USELESS:          0
DTLB USEFUL LOAD PREFETCHES:          0 PREFETCH ISSUED TO LOWER LEVEL:          0  ACCURACY: -nan
DTLB TIMELY PREFETCHES:          0 LATE PREFETCHES: 0 DROPPED PREFETCHES: 0
DTLB PREFETCHES SAME FILL-ORIGIN LEVEL: 0 DIFFERENT FILL-ORIGIN LEVEL: 0
DTLB AVERAGE MISS LATENCY: 10.3405 cycles
DTLB RQ	ACCESS:   13392658	FORWARD:          0	MERGED:    1951092	TO_CACHE:   11441566

STLB TOTAL     ACCESS:    1242806  HIT:    1238730  MISS:       4076  HIT %:     99.672  MISS %:   0.327968   MPKI: 0.08152
STLB LOAD TRANSLATION ACCESS:     383648  HIT:     379572  MISS:       4076  HIT %:    98.9376  MISS %:    1.06243   MPKI: 0.08152
STLB TRANSLATION FROM L1D PREFETCHER ACCESS:     859158  HIT:     859158  MISS:          0  HIT %:        100  MISS %:          0   MPKI: 0
STLB PREFETCH  REQUESTED:          0  ISSUED:          0  USEFUL:          0  USELESS:          0
STLB USEFUL LOAD PREFETCHES:          0 PREFETCH ISSUED TO LOWER LEVEL:          0  ACCURACY: -nan
STLB TIMELY PREFETCHES:          0 LATE PREFETCHES: 0 DROPPED PREFETCHES: 0
STLB PREFETCHES SAME FILL-ORIGIN LEVEL: 0 DIFFERENT FILL-ORIGIN LEVEL: 0
STLB AVERAGE MISS LATENCY: 133.254 cycles
STLB RQ	ACCESS:    1514885	FORWARD:          0	MERGED:     272079	TO_CACHE:    1242806

STLB Hit, L1D data hit: 0
STLB Hit, L2C data hit: 0
STLB Hit, LLC data hit: 0
STLB Hit, LLC data miss: 0
STLB STLB hints to L2: 0
L1D TOTAL     ACCESS:   14305856  HIT:   13222104  MISS:    1083752  HIT %:    92.4244  MISS %:    7.57558   MPKI: 21.675
L1D LOAD      ACCESS:    9322198  HIT:    8768099  MISS:     554099  HIT %:    94.0561  MISS %:    5.94387   MPKI: 11.082
L1D RFO       ACCESS:    3888687  HIT:    3824051  MISS:      64636  HIT %:    98.3378  MISS %:    1.66215   MPKI: 1.29272
L1D PREFETCH  ACCESS:    1094971  HIT:     629954  MISS:     465017  HIT %:    57.5316  MISS %:    42.4684   MPKI: 9.30034
L1D PREFETCH  REQUESTED:    2263226  ISSUED:    2262616  USEFUL:      95132  USELESS:     370032
L1D USEFUL LOAD PREFETCHES:      95132 PREFETCH ISSUED TO LOWER LEVEL:     476477  ACCURACY: 19.9657
L1D TIMELY PREFETCHES:      95132 LATE PREFETCHES: 10536 DROPPED PREFETCHES: 0
L1D PREFETCHES SAME FILL-ORIGIN LEVEL: 476477 DIFFERENT FILL-ORIGIN LEVEL: 0
L1D AVERAGE MISS LATENCY: 469528 cycles
L1D RQ	ACCESS:   13525111	FORWARD:          0	MERGED:    4064354	TO_CACHE:    9376002
L1D WQ	ACCESS:    4089311	FORWARD:      84897	MERGED:      72655	TO_CACHE:    4016656
L1D PQ	ACCESS:    1131379	FORWARD:          0	MERGED:          0	TO_CACHE:    1131237

L1D UNIQUE REGIONS ACCESSED: 0
L1D REGIONS CONFLICTS: 0
L1D Cross Page Prefetch Requests: 0
L1D Same Page Prefetch Requests: 1299302
L1D ROI Sum of L1D PQ occupancy: 14591167
L1D PREFETCHES PUSHED FROM L2C: 0
L1I TOTAL     ACCESS:    9486366  HIT:    9203922  MISS:     282444  HIT %:    97.0226  MISS %:    2.97737   MPKI: 5.64888
L1I LOAD      ACCESS:    9486366  HIT:    9203922  MISS:     282444  HIT %:    97.0226  MISS %:    2.97737   MPKI: 5.64888
L1I PREFETCH  REQUESTED:          0  ISSUED:          0  USEFUL:          0  USELESS:          0
L1I USEFUL LOAD PREFETCHES:          0 PREFETCH ISSUED TO LOWER LEVEL:          0  ACCURACY: -nan
L1I TIMELY PREFETCHES:          0 LATE PREFETCHES: 0 DROPPED PREFETCHES: 0
L1I PREFETCHES SAME FILL-ORIGIN LEVEL: 0 DIFFERENT FILL-ORIGIN LEVEL: 0
L1I AVERAGE MISS LATENCY: 22.68 cycles
L1I RQ	ACCESS:   13884962	FORWARD:          0	MERGED:    4289168	TO_CACHE:    9595794

BTB TOTAL     ACCESS:    6340390  HIT:    6062165  MISS:     278225  HIT %:    95.6119  MISS %:    4.38814   MPKI: 5.5645
BTB BRANCH_DIRECT_JUMP	ACCESS:     410484  HIT:     408710  MISS:       1774
BTB BRANCH_INDIRECT	ACCESS:      28973  HIT:      20601  MISS:       8372
BTB BRANCH_CONDITIONAL	ACCESS:    4498275  HIT:    4493945  MISS:       4330
BTB BRANCH_DIRECT_CALL	ACCESS:     484117  HIT:     481984  MISS:       2133
BTB BRANCH_INDIRECT_CALL	ACCESS:     217116  HIT:     157175  MISS:      59941
BTB BRANCH_RETURN	ACCESS:     701425  HIT:     499750  MISS:     201675
BTB BRANCH_OTHER ACCESS:          0  HIT:          0  MISS:          0

L2C TOTAL     ACCESS:    1649130  HIT:    1246905  MISS:     402225  HIT %:    75.6099  MISS %:    24.3901   MPKI: 8.0445
L2C LOAD      ACCESS:     825999  HIT:     633971  MISS:     192028  HIT %:     76.752  MISS %:     23.248   MPKI: 3.84056
L2C DATA LOAD MPKI: 3.41536
L2C INSTRUCTION LOAD MPKI: 0.4252
L2C RFO       ACCESS:      63708  HIT:      22505  MISS:      41203  HIT %:    35.3252  MISS %:    64.6748   MPKI: 0.82406
L2C PREFETCH  ACCESS:     601838  HIT:     436948  MISS:     164890  HIT %:    72.6023  MISS %:    27.3977   MPKI: 3.2978
L2C DATA PREFETCH MPKI: 3.2978
L2C INSTRUCTION PREFETCH MPKI: 0
L2C WRITEBACK ACCESS:     153319  HIT:     151145  MISS:       2174  HIT %:     98.582  MISS %:    1.41796   MPKI: 0.04348
L2C LOAD TRANSLATION ACCESS:       4266  HIT:       2336  MISS:       1930  HIT %:    54.7586  MISS %:    45.2414   MPKI: 0.0386
L2C PREFETCH  REQUESTED:     136565  ISSUED:     136565  USEFUL:      27932  USELESS:     138777
L2C USEFUL LOAD PREFETCHES:      27932 PREFETCH ISSUED TO LOWER LEVEL:     166254  ACCURACY: 16.8008
L2C TIMELY PREFETCHES:      27932 LATE PREFETCHES: 1364 DROPPED PREFETCHES: 0
L2C PREFETCHES SAME FILL-ORIGIN LEVEL: 38573 DIFFERENT FILL-ORIGIN LEVEL: 0
L2C AVERAGE MISS LATENCY: 94.2315 cycles
L2C RQ	ACCESS:     893985	FORWARD:          0	MERGED:          0	TO_CACHE:     893973
L2C WQ	ACCESS:     153319	FORWARD:         15	MERGED:          0	TO_CACHE:     153319
L2C PQ	ACCESS:     613042	FORWARD:          0	MERGED:       2692	TO_CACHE:     610347

L2C Instructions Evicting Data 18918
L2C Translations Evicting Data 1732
L2C Data Evicting Data 358055
L2C Instructions Evicting Instructions 2183
L2C Translations Evicting Instructions 190
L2C Data Evicting Instructions 17210
L2C Instructions Evicting Translations 159
L2C Translations Evicting Translations 8
L2C Data Evicting Translations 1596
L2C Dense regions hint from L2: 0
PSCL5 TOTAL     ACCESS:       4076  HIT:       4076  MISS:          0  HIT %:        100  MISS %:          0   MPKI: 0
PSCL5 LOAD TRANSLATION ACCESS:       4076  HIT:       4076  MISS:          0  HIT %:        100  MISS %:          0   MPKI: 0
PSCL5 PREFETCH  REQUESTED:          0  ISSUED:          0  USEFUL:          0  USELESS:          0
PSCL5 USEFUL LOAD PREFETCHES:          0 PREFETCH ISSUED TO LOWER LEVEL:          0  ACCURACY: -nan
PSCL5 TIMELY PREFETCHES:          0 LATE PREFETCHES: 0 DROPPED PREFETCHES: 0
PSCL5 PREFETCHES SAME FILL-ORIGIN LEVEL: 0 DIFFERENT FILL-ORIGIN LEVEL: 0

PSCL4 TOTAL     ACCESS:       4076  HIT:       4076  MISS:          0  HIT %:        100  MISS %:          0   MPKI: 0
PSCL4 LOAD TRANSLATION ACCESS:       4076  HIT:       4076  MISS:          0  HIT %:        100  MISS %:          0   MPKI: 0
PSCL4 PREFETCH  REQUESTED:          0  ISSUED:          0  USEFUL:          0  USELESS:          0
PSCL4 USEFUL LOAD PREFETCHES:          0 PREFETCH ISSUED TO LOWER LEVEL:          0  ACCURACY: -nan
PSCL4 TIMELY PREFETCHES:          0 LATE PREFETCHES: 0 DROPPED PREFETCHES: 0
PSCL4 PREFETCHES SAME FILL-ORIGIN LEVEL: 0 DIFFERENT FILL-ORIGIN LEVEL: 0

PSCL3 TOTAL     ACCESS:       4063  HIT:       4056  MISS:          7  HIT %:    99.8277  MISS %:   0.172286   MPKI: 0.00014
PSCL3 LOAD TRANSLATION ACCESS:       4063  HIT:       4056  MISS:          7  HIT %:    99.8277  MISS %:   0.172286   MPKI: 0.00014
PSCL3 PREFETCH  REQUESTED:          0  ISSUED:          0  USEFUL:          0  USELESS:          0
PSCL3 USEFUL LOAD PREFETCHES:          0 PREFETCH ISSUED TO LOWER LEVEL:          0  ACCURACY: -nan
PSCL3 TIMELY PREFETCHES:          0 LATE PREFETCHES: 0 DROPPED PREFETCHES: 0
PSCL3 PREFETCHES SAME FILL-ORIGIN LEVEL: 0 DIFFERENT FILL-ORIGIN LEVEL: 0

PSCL2 TOTAL     ACCESS:       4076  HIT:       3892  MISS:        184  HIT %:    95.4858  MISS %:    4.51423   MPKI: 0.00368
PSCL2 LOAD TRANSLATION ACCESS:       4076  HIT:       3892  MISS:        184  HIT %:    95.4858  MISS %:    4.51423   MPKI: 0.00368
PSCL2 PREFETCH  REQUESTED:          0  ISSUED:          0  USEFUL:          0  USELESS:          0
PSCL2 USEFUL LOAD PREFETCHES:          0 PREFETCH ISSUED TO LOWER LEVEL:          0  ACCURACY: -nan
PSCL2 TIMELY PREFETCHES:          0 LATE PREFETCHES: 0 DROPPED PREFETCHES: 0
PSCL2 PREFETCHES SAME FILL-ORIGIN LEVEL: 0 DIFFERENT FILL-ORIGIN LEVEL: 0

LLC TOTAL     ACCESS:     497456  HIT:     341470  MISS:     155986  HIT %:    68.6433  MISS %:    31.3567   MPKI: 3.11972
LLC LOAD      ACCESS:     190671  HIT:     125142  MISS:      65529  HIT %:    65.6324  MISS %:    34.3676   MPKI: 1.31058
LLC RFO       ACCESS:      41196  HIT:       4806  MISS:      36390  HIT %:    11.6662  MISS %:    88.3338   MPKI: 0.7278
LLC PREFETCH  ACCESS:     166251  HIT:     114180  MISS:      52071  HIT %:    68.6793  MISS %:    31.3207   MPKI: 1.04142
LLC WRITEBACK ACCESS:      97408  HIT:      96794  MISS:        614  HIT %:    99.3697  MISS %:   0.630338   MPKI: 0.01228
LLC LOAD TRANSLATION ACCESS:       1930  HIT:        548  MISS:       1382  HIT %:    28.3938  MISS %:    71.6062   MPKI: 0.02764
LLC PREFETCH  REQUESTED:          0  ISSUED:          0  USEFUL:      12640  USELESS:      42712
LLC USEFUL LOAD PREFETCHES:      12640 PREFETCH ISSUED TO LOWER LEVEL:      52071  ACCURACY: 24.2745
LLC TIMELY PREFETCHES:      12640 LATE PREFETCHES: 0 DROPPED PREFETCHES: 0
LLC PREFETCHES SAME FILL-ORIGIN LEVEL: 0 DIFFERENT FILL-ORIGIN LEVEL: 0
LLC AVERAGE MISS LATENCY: 165.82 cycles
LLC RQ	ACCESS:     233797	FORWARD:          0	MERGED:          0	TO_CACHE:     233797
LLC WQ	ACCESS:      97408	FORWARD:          3	MERGED:          0	TO_CACHE:      97408
LLC PQ	ACCESS:     166254	FORWARD:          0	MERGED:          0	TO_CACHE:     166251

LLC Dense regions hint to LLC: 0

RAW hits: 719356
Loads Generated: 14244465
Loads sent to L1D: 13525111
Stores Generated: 4089305
Stores sent to L1D: 4089311
Major fault: 0 Minor fault: 2936
Allocated PAGES: 2936

stream: 
stream:times selected: 1739577
stream:pref_filled: 397548
stream:pref_useful: 77110
stream:pref_late: 7373
stream:misses: 72677
stream:misses_by_poll: 0

CS: 
CS:times selected: 128096
CS:pref_filled: 21037
CS:pref_useful: 12390
CS:pref_late: 772
CS:misses: 2579
CS:misses_by_poll: 20

CPLX: 
CPLX:times selected: 1688291
CPLX:pref_filled: 80089
CPLX:pref_useful: 16888
CPLX:pref_late: 1296
CPLX:misses: 291830
CPLX:misses_by_poll: 95

NL_L1: 
NL:times selected: 17016
NL:pref_filled: 3702
NL:pref_useful: 831
NL:pref_late: 81
NL:misses: 3296
NL:misses_by_poll: 0

total selections: 3572980
total_filled: 465017
total_useful: 95132
total_late: 10932
total_polluted: 115
total_misses_after_warmup: 607905
conflicts: 1911586
Degree Incremented Times: 55
Degree Decremented Times: 225973

L1 IP Table Write Accesses: 6872506
L1 IP Table Read Accesses: 4960920
L1 RST Write Accesses: 1458011
L1 RST Read Accesses: 2916022
L1 CSPT Write Accesses: 1458011
L1 CSPT Read Accesses: 2880257
L1 RR Filter Tag Write Accesses: 1131989
L1 RR Filter Tag Read Accesses: 53768324
L1 IP Table Tag Write Accesses: 9376004
L1 IP Table Tag Read Accesses: 9376004
L1 RST Tag Write Accesses: 0
L1 RST Tag Read Accesses: 13251718
L1 RR Filter Write Accesses: 0
L1 RR Filter Read Accesses: 1866334
test: 728074
L2 IP Table Read Accesses: 1896291
L2 IP Table Write Accesses: 1563532
L2 IP Table Tag Read Accesses: 1017272
L2 IP Table Tag Write Accesses: 1017272

DRAM Statistics
 CHANNEL 0
 RQ ROW_BUFFER_HIT:      37738  ROW_BUFFER_MISS:     117632
 DBUS_CONGESTED:         85
 WQ ROW_BUFFER_HIT:      16025  ROW_BUFFER_MISS:      60045  FULL:          0

 AVG_CONGESTED_CYCLE: 4
 All warmup complete: 2
Channel 0 Bank busy for read cycles: 0
Channel 0 Bank busy for write cycles: 0
Channel 0
Rank 0
0banks busy for read cycles: 62191241
0banks busy for write cycles: 25866
1banks busy for read cycles: 6722276
1banks busy for write cycles: 3275932
2banks busy for read cycles: 2852743
2banks busy for write cycles: 1226000
3banks busy for read cycles: 1057889
3banks busy for write cycles: 560519
4banks busy for read cycles: 409867
4banks busy for write cycles: 308369
5banks busy for read cycles: 151742
5banks busy for write cycles: 198735
6banks busy for read cycles: 75394
6banks busy for write cycles: 158625
7banks busy for read cycles: 50778
7banks busy for write cycles: 165363
8banks busy for read cycles: 99578
8banks busy for write cycles: 515905

CPU 0 Branch Prediction Accuracy: 93.5327% MPKI: 11.3995 Average ROB Occupancy at Mispredict: 45.3107
Branch types
NOT_BRANCH: 41186521 82.373%
BRANCH_DIRECT_JUMP: 410484 0.820968%
BRANCH_INDIRECT: 28973 0.057946%
BRANCH_CONDITIONAL: 6971023 13.942%
BRANCH_DIRECT_CALL: 484117 0.968234%
BRANCH_INDIRECT_CALL: 217116 0.434232%
BRANCH_RETURN: 701425 1.40285%
BRANCH_OTHER: 0 0%

@sumon_overall_L1D     95132     10536    370032    465017   2262616   2263226
@Sumon_Early_by_class_L1D     67998     10395     15198        75
@Sumon_Late_by_class_L1D      7020       763      1279        75

@Sumon_Early_by_cycle_L1D     29410     22743      8544      4069      2738      8521      5336      4953      4142      3067      1009       600
@Sumon_Late_by_cycle_L1D      9020      1490        26         0         0         0         0         0         0         0         0         0
@Sumon_Early_stream_L1D     22577     14654      5850      2985      2144      6360      3835      3585      2853      1985       658       512
@Sumon_Early_CS_L1D      2611      4611      1135       391       145       482       441       251       165        88        61        14
@Sumon_Early_CPLX_L1D      3721      3283      1427       594       391      1528       940      1020      1052       907       267        68
@Sumon_Late_stream_L1D      5776      1219        25         0         0         0         0         0         0         0         0         0
@Sumon_Late_CS_L1D       690        73         0         0         0         0         0         0         0         0         0         0
@Sumon_Late_CPLX_L1D      1102       176         1         0         0         0         0         0         0         0         0         0
@sumon_overall_L2C     27932      1364    138777    164890    136565    136565
@Sumon_Early_by_class_L2C      7996       548      3415         0
@Sumon_Late_by_class_L2C         0         0         0         0

@Sumon_Early_by_cycle_L2C      2483      1582      1320       842       532      1847      1370      1241      1479      2386      1967     10883
@Sumon_Late_by_cycle_L2C       788       571         5         0         0         0         0         0         0         0         0         0
@Sumon_Early_stream_L2C         0         2         7         2         3        29        63       135       286       650       818      6001
@Sumon_Early_CS_L2C         0         0         3         0         0         5        10        20        30        31        37       412
@Sumon_Early_CPLX_L2C         0         0         0         0         1         4        12        34       129       369       447      2419
@Sumon_Late_stream_L2C         0         0         0         0         0         0         0         0         0         0         0         0
@Sumon_Late_CS_L2C         0         0         0         0         0         0         0         0         0         0         0         0
@Sumon_Late_CPLX_L2C         0         0         0         0         0         0         0         0         0         0         0         0
DRAM PAGES: 1048576
Allocated PAGES: 2936
