
*** ChampSim Multicore Out-of-Order Simulator ***

Warmup Instructions: 10000000
Simulation Instructions: 50000000
Number of CPUs: 1
LLC sets: 2048
LLC ways: 16
Off-chip DRAM Size: 4096 MB Channels: 1 Width: 64-bit Data Rate: 6400 MT/s
CPU 0 runs traces/clientserver/server_029.champsimtrace.xz
.xz
CPU 0 Bimodal branch predictor
BTB has LRU replacement policy
ITLB has LRU replacement policy
DTLB has LRU replacement policy
STLB has LRU replacement policy
L1I has LRU replacement policy
IP Table Entries: 256
Initialize SRRIP state for L1D
IP_Table L2 entries: 256
Initialize SRRIP state for L2C
LLC has LRU replacement policy
Heartbeat CPU 0 instructions: 10000003 cycles: 2888098 heartbeat IPC: 3.46249 cumulative IPC: 3.46249 (Simulation time: 0 hr 8 min 34 sec) 

Warmup complete CPU 0 instructions: 10000003 cycles: 2888098 (Simulation time: 0 hr 8 min 34 sec) 

Heartbeat CPU 0 instructions: 20000000 cycles: 27758539 heartbeat IPC: 0.402084 cumulative IPC: 0.402084 (Simulation time: 0 hr 17 min 8 sec) 
Heartbeat CPU 0 instructions: 30000000 cycles: 52537084 heartbeat IPC: 0.403575 cumulative IPC: 0.402828 (Simulation time: 0 hr 25 min 50 sec) 
Heartbeat CPU 0 instructions: 40000001 cycles: 77508754 heartbeat IPC: 0.400454 cumulative IPC: 0.402033 (Simulation time: 0 hr 34 min 28 sec) 
Heartbeat CPU 0 instructions: 50000000 cycles: 102491783 heartbeat IPC: 0.400272 cumulative IPC: 0.401592 (Simulation time: 0 hr 43 min 8 sec) 
Heartbeat CPU 0 instructions: 60000000 cycles: 127561274 heartbeat IPC: 0.398891 cumulative IPC: 0.401049 (Simulation time: 0 hr 50 min 34 sec) 
Finished CPU 0 instructions: 50000000 cycles: 124673177 cumulative IPC: 0.401049 (Simulation time: 0 hr 50 min 34 sec) 

ChampSim completed all CPUs

Region of Interest Statistics

CPU 0 cumulative IPC: 0.401049 instructions: 50000000 cycles: 124673177
ITLB TOTAL     ACCESS:    8696234  HIT:    8163246  MISS:     532988  HIT %:     93.871  MISS %:    6.12895   MPKI: 10.6598
ITLB LOAD TRANSLATION ACCESS:    8696234  HIT:    8163246  MISS:     532988  HIT %:     93.871  MISS %:    6.12895   MPKI: 10.6598
ITLB PREFETCH  REQUESTED:          0  ISSUED:          0  USEFUL:          0  USELESS:          0
ITLB USEFUL LOAD PREFETCHES:          0 PREFETCH ISSUED TO LOWER LEVEL:          0  ACCURACY: -nan
ITLB TIMELY PREFETCHES:          0 LATE PREFETCHES: 0 DROPPED PREFETCHES: 0
ITLB PREFETCHES SAME FILL-ORIGIN LEVEL: 0 DIFFERENT FILL-ORIGIN LEVEL: 0
ITLB AVERAGE MISS LATENCY: 9.22474 cycles
ITLB RQ	ACCESS:   10359948	FORWARD:          0	MERGED:    1528895	TO_CACHE:    8831053

DTLB TOTAL     ACCESS:   12244811  HIT:   11700210  MISS:     544601  HIT %:    95.5524  MISS %:    4.44761   MPKI: 10.892
DTLB LOAD TRANSLATION ACCESS:   12244811  HIT:   11700210  MISS:     544601  HIT %:    95.5524  MISS %:    4.44761   MPKI: 10.892
DTLB PREFETCH  REQUESTED:          0  ISSUED:          0  USEFUL:          0  USELESS:          0
DTLB USEFUL LOAD PREFETCHES:          0 PREFETCH ISSUED TO LOWER LEVEL:          0  ACCURACY: -nan
DTLB TIMELY PREFETCHES:          0 LATE PREFETCHES: 0 DROPPED PREFETCHES: 0
DTLB PREFETCHES SAME FILL-ORIGIN LEVEL: 0 DIFFERENT FILL-ORIGIN LEVEL: 0
DTLB AVERAGE MISS LATENCY: 11.9687 cycles
DTLB RQ	ACCESS:   15353533	FORWARD:          0	MERGED:    3089735	TO_CACHE:   12263798

STLB TOTAL     ACCESS:    1604979  HIT:    1591184  MISS:      13795  HIT %:    99.1405  MISS %:   0.859513   MPKI: 0.2759
STLB LOAD TRANSLATION ACCESS:    1077589  HIT:    1063794  MISS:      13795  HIT %:    98.7198  MISS %:    1.28017   MPKI: 0.2759
STLB TRANSLATION FROM L1D PREFETCHER ACCESS:     527390  HIT:     527390  MISS:          0  HIT %:        100  MISS %:          0   MPKI: 0
STLB PREFETCH  REQUESTED:          0  ISSUED:          0  USEFUL:          0  USELESS:          0
STLB USEFUL LOAD PREFETCHES:          0 PREFETCH ISSUED TO LOWER LEVEL:          0  ACCURACY: -nan
STLB TIMELY PREFETCHES:          0 LATE PREFETCHES: 0 DROPPED PREFETCHES: 0
STLB PREFETCHES SAME FILL-ORIGIN LEVEL: 0 DIFFERENT FILL-ORIGIN LEVEL: 0
STLB AVERAGE MISS LATENCY: 124.872 cycles
STLB RQ	ACCESS:    1979818	FORWARD:          0	MERGED:     374840	TO_CACHE:    1604978

STLB Hit, L1D data hit: 0
STLB Hit, L2C data hit: 0
STLB Hit, LLC data hit: 0
STLB Hit, LLC data miss: 0
STLB STLB hints to L2: 0
L1D TOTAL     ACCESS:   15706366  HIT:   13931767  MISS:    1774599  HIT %:    88.7014  MISS %:    11.2986   MPKI: 35.492
L1D LOAD      ACCESS:    8595514  HIT:    7655914  MISS:     939600  HIT %:    89.0687  MISS %:    10.9313   MPKI: 18.792
L1D RFO       ACCESS:    6278216  HIT:    5974235  MISS:     303981  HIT %:    95.1582  MISS %:    4.84184   MPKI: 6.07962
L1D PREFETCH  ACCESS:     832636  HIT:     301618  MISS:     531018  HIT %:    36.2245  MISS %:    63.7755   MPKI: 10.6204
L1D PREFETCH  REQUESTED:    1804828  ISSUED:    1804820  USEFUL:     262633  USELESS:     268343
L1D USEFUL LOAD PREFETCHES:     262633 PREFETCH ISSUED TO LOWER LEVEL:     579530  ACCURACY: 45.3183
L1D TIMELY PREFETCHES:     262633 LATE PREFETCHES: 48341 DROPPED PREFETCHES: 0
L1D PREFETCHES SAME FILL-ORIGIN LEVEL: 579530 DIFFERENT FILL-ORIGIN LEVEL: 0
L1D AVERAGE MISS LATENCY: 1.77255e+06 cycles
L1D RQ	ACCESS:   11742288	FORWARD:          0	MERGED:    2989665	TO_CACHE:    8636111
L1D WQ	ACCESS:    6762648	FORWARD:     116874	MERGED:      45226	TO_CACHE:    6717422
L1D PQ	ACCESS:     902591	FORWARD:          0	MERGED:          0	TO_CACHE:     902229

L1D UNIQUE REGIONS ACCESSED: 0
L1D REGIONS CONFLICTS: 0
L1D Cross Page Prefetch Requests: 0
L1D Same Page Prefetch Requests: 1072541
L1D ROI Sum of L1D PQ occupancy: 11618657
L1D PREFETCHES PUSHED FROM L2C: 0
L1I TOTAL     ACCESS:    9841531  HIT:    6937803  MISS:    2903728  HIT %:    70.4952  MISS %:    29.5048   MPKI: 58.0746
L1I LOAD      ACCESS:    9841531  HIT:    6937803  MISS:    2903728  HIT %:    70.4952  MISS %:    29.5048   MPKI: 58.0746
L1I PREFETCH  REQUESTED:          0  ISSUED:          0  USEFUL:          0  USELESS:          0
L1I USEFUL LOAD PREFETCHES:          0 PREFETCH ISSUED TO LOWER LEVEL:          0  ACCURACY: -nan
L1I TIMELY PREFETCHES:          0 LATE PREFETCHES: 0 DROPPED PREFETCHES: 0
L1I PREFETCHES SAME FILL-ORIGIN LEVEL: 0 DIFFERENT FILL-ORIGIN LEVEL: 0
L1I AVERAGE MISS LATENCY: 17.4791 cycles
L1I RQ	ACCESS:   13969865	FORWARD:          0	MERGED:    3609917	TO_CACHE:   10359948

BTB TOTAL     ACCESS:    6134172  HIT:    4300135  MISS:    1834037  HIT %:    70.1013  MISS %:    29.8987   MPKI: 36.6807
BTB BRANCH_DIRECT_JUMP	ACCESS:     525618  HIT:     378588  MISS:     147030
BTB BRANCH_INDIRECT	ACCESS:     166508  HIT:     130989  MISS:      35519
BTB BRANCH_CONDITIONAL	ACCESS:    3093621  HIT:    2589787  MISS:     503834
BTB BRANCH_DIRECT_CALL	ACCESS:     988709  HIT:     629772  MISS:     358937
BTB BRANCH_INDIRECT_CALL	ACCESS:     185503  HIT:     117008  MISS:      68495
BTB BRANCH_RETURN	ACCESS:    1174213  HIT:     453991  MISS:     720222
BTB BRANCH_OTHER ACCESS:          0  HIT:          0  MISS:          0

L2C TOTAL     ACCESS:    6288726  HIT:    5610174  MISS:     678552  HIT %:      89.21  MISS %:      10.79   MPKI: 13.571
L2C LOAD      ACCESS:    3794980  HIT:    3389397  MISS:     405583  HIT %:    89.3126  MISS %:    10.6874   MPKI: 8.11166
L2C DATA LOAD MPKI: 1.77616
L2C INSTRUCTION LOAD MPKI: 6.3355
L2C RFO       ACCESS:     303810  HIT:     266025  MISS:      37785  HIT %:     87.563  MISS %:     12.437   MPKI: 0.7557
L2C PREFETCH  ACCESS:    1577652  HIT:    1369759  MISS:     207893  HIT %:    86.8226  MISS %:    13.1774   MPKI: 4.15786
L2C DATA PREFETCH MPKI: 4.15786
L2C INSTRUCTION PREFETCH MPKI: 0
L2C WRITEBACK ACCESS:     591466  HIT:     578191  MISS:      13275  HIT %:    97.7556  MISS %:    2.24442   MPKI: 0.2655
L2C LOAD TRANSLATION ACCESS:      20818  HIT:       6802  MISS:      14016  HIT %:    32.6736  MISS %:    67.3264   MPKI: 0.28032
L2C PREFETCH  REQUESTED:    1055460  ISSUED:    1055460  USEFUL:      11052  USELESS:     196712
L2C USEFUL LOAD PREFETCHES:      11052 PREFETCH ISSUED TO LOWER LEVEL:     209592  ACCURACY: 5.2731
L2C TIMELY PREFETCHES:      11052 LATE PREFETCHES: 1699 DROPPED PREFETCHES: 0
L2C PREFETCHES SAME FILL-ORIGIN LEVEL: 79470 DIFFERENT FILL-ORIGIN LEVEL: 0
L2C AVERAGE MISS LATENCY: 46.8445 cycles
L2C RQ	ACCESS:    4119611	FORWARD:          0	MERGED:          0	TO_CACHE:    4119605
L2C WQ	ACCESS:     591466	FORWARD:         10	MERGED:          0	TO_CACHE:     591466
L2C PQ	ACCESS:    1634990	FORWARD:          0	MERGED:      46953	TO_CACHE:    1588033

L2C Instructions Evicting Data 133109
L2C Translations Evicting Data 9906
L2C Data Evicting Data 198007
L2C Instructions Evicting Instructions 180161
L2C Translations Evicting Instructions 3456
L2C Data Evicting Instructions 126817
L2C Instructions Evicting Translations 3505
L2C Translations Evicting Translations 654
L2C Data Evicting Translations 9662
L2C Dense regions hint from L2: 0
PSCL5 TOTAL     ACCESS:      13795  HIT:      13795  MISS:          0  HIT %:        100  MISS %:          0   MPKI: 0
PSCL5 LOAD TRANSLATION ACCESS:      13795  HIT:      13795  MISS:          0  HIT %:        100  MISS %:          0   MPKI: 0
PSCL5 PREFETCH  REQUESTED:          0  ISSUED:          0  USEFUL:          0  USELESS:          0
PSCL5 USEFUL LOAD PREFETCHES:          0 PREFETCH ISSUED TO LOWER LEVEL:          0  ACCURACY: -nan
PSCL5 TIMELY PREFETCHES:          0 LATE PREFETCHES: 0 DROPPED PREFETCHES: 0
PSCL5 PREFETCHES SAME FILL-ORIGIN LEVEL: 0 DIFFERENT FILL-ORIGIN LEVEL: 0

PSCL4 TOTAL     ACCESS:      13493  HIT:      13320  MISS:        173  HIT %:    98.7179  MISS %:    1.28215   MPKI: 0.00346
PSCL4 LOAD TRANSLATION ACCESS:      13493  HIT:      13320  MISS:        173  HIT %:    98.7179  MISS %:    1.28215   MPKI: 0.00346
PSCL4 PREFETCH  REQUESTED:          0  ISSUED:          0  USEFUL:          0  USELESS:          0
PSCL4 USEFUL LOAD PREFETCHES:          0 PREFETCH ISSUED TO LOWER LEVEL:          0  ACCURACY: -nan
PSCL4 TIMELY PREFETCHES:          0 LATE PREFETCHES: 0 DROPPED PREFETCHES: 0
PSCL4 PREFETCHES SAME FILL-ORIGIN LEVEL: 0 DIFFERENT FILL-ORIGIN LEVEL: 0

PSCL3 TOTAL     ACCESS:      13760  HIT:      13587  MISS:        173  HIT %:    98.7427  MISS %:    1.25727   MPKI: 0.00346
PSCL3 LOAD TRANSLATION ACCESS:      13760  HIT:      13587  MISS:        173  HIT %:    98.7427  MISS %:    1.25727   MPKI: 0.00346
PSCL3 PREFETCH  REQUESTED:          0  ISSUED:          0  USEFUL:          0  USELESS:          0
PSCL3 USEFUL LOAD PREFETCHES:          0 PREFETCH ISSUED TO LOWER LEVEL:          0  ACCURACY: -nan
PSCL3 TIMELY PREFETCHES:          0 LATE PREFETCHES: 0 DROPPED PREFETCHES: 0
PSCL3 PREFETCHES SAME FILL-ORIGIN LEVEL: 0 DIFFERENT FILL-ORIGIN LEVEL: 0

PSCL2 TOTAL     ACCESS:      13795  HIT:       7111  MISS:       6684  HIT %:    51.5477  MISS %:    48.4523   MPKI: 0.13368
PSCL2 LOAD TRANSLATION ACCESS:      13795  HIT:       7111  MISS:       6684  HIT %:    51.5477  MISS %:    48.4523   MPKI: 0.13368
PSCL2 PREFETCH  REQUESTED:          0  ISSUED:          0  USEFUL:          0  USELESS:          0
PSCL2 USEFUL LOAD PREFETCHES:          0 PREFETCH ISSUED TO LOWER LEVEL:          0  ACCURACY: -nan
PSCL2 TIMELY PREFETCHES:          0 LATE PREFETCHES: 0 DROPPED PREFETCHES: 0
PSCL2 PREFETCHES SAME FILL-ORIGIN LEVEL: 0 DIFFERENT FILL-ORIGIN LEVEL: 0

LLC TOTAL     ACCESS:     720845  HIT:     642965  MISS:      77880  HIT %:     89.196  MISS %:     10.804   MPKI: 1.5576
LLC LOAD      ACCESS:     403938  HIT:     385097  MISS:      18841  HIT %:    95.3357  MISS %:    4.66433   MPKI: 0.37682
LLC RFO       ACCESS:      37731  HIT:      35207  MISS:       2524  HIT %:    93.3105  MISS %:    6.68946   MPKI: 0.05048
LLC PREFETCH  ACCESS:     209591  HIT:     156629  MISS:      52962  HIT %:    74.7308  MISS %:    25.2692   MPKI: 1.05924
LLC WRITEBACK ACCESS:      55569  HIT:      54979  MISS:        590  HIT %:    98.9383  MISS %:    1.06174   MPKI: 0.0118
LLC LOAD TRANSLATION ACCESS:      14016  HIT:      11053  MISS:       2963  HIT %:    78.8599  MISS %:    21.1401   MPKI: 0.05926
LLC PREFETCH  REQUESTED:          0  ISSUED:          0  USEFUL:       2166  USELESS:      46938
LLC USEFUL LOAD PREFETCHES:       2166 PREFETCH ISSUED TO LOWER LEVEL:      52962  ACCURACY: 4.08972
LLC TIMELY PREFETCHES:       2166 LATE PREFETCHES: 0 DROPPED PREFETCHES: 0
LLC PREFETCHES SAME FILL-ORIGIN LEVEL: 0 DIFFERENT FILL-ORIGIN LEVEL: 0
LLC AVERAGE MISS LATENCY: 151.019 cycles
LLC RQ	ACCESS:     455685	FORWARD:          0	MERGED:          0	TO_CACHE:     455685
LLC WQ	ACCESS:      55569	FORWARD:          1	MERGED:          0	TO_CACHE:      55569
LLC PQ	ACCESS:     209592	FORWARD:          0	MERGED:          0	TO_CACHE:     209591

LLC Dense regions hint to LLC: 0

RAW hits: 554303
Loads Generated: 12296591
Loads sent to L1D: 11742288
Stores Generated: 6762648
Stores sent to L1D: 6762648
Major fault: 0 Minor fault: 5445
Allocated PAGES: 5445

stream: 
stream:times selected: 1058827
stream:pref_filled: 124562
stream:pref_useful: 21306
stream:pref_late: 27206
stream:misses: 15540
stream:misses_by_poll: 0

CS: 
CS:times selected: 166247
CS:pref_filled: 122506
CS:pref_useful: 105218
CS:pref_late: 3070
CS:misses: 8379
CS:misses_by_poll: 62

CPLX: 
CPLX:times selected: 889277
CPLX:pref_filled: 379635
CPLX:pref_useful: 184170
CPLX:pref_late: 10641
CPLX:misses: 125107
CPLX:misses_by_poll: 213

NL_L1: 
NL:times selected: 2370
NL:pref_filled: 354
NL:pref_useful: 23
NL:pref_late: 5
NL:misses: 115
NL:misses_by_poll: 0

total selections: 2116721
total_filled: 531018
total_useful: 262633
total_late: 52759
total_polluted: 275
total_misses_after_warmup: 980197
conflicts: 3267842
Degree Incremented Times: 51674
Degree Decremented Times: 95759

L1 IP Table Write Accesses: 5095531
L1 IP Table Read Accesses: 1827689
L1 RST Write Accesses: 880597
L1 RST Read Accesses: 1761194
L1 CSPT Write Accesses: 880597
L1 CSPT Read Accesses: 2940729
L1 RR Filter Tag Write Accesses: 902599
L1 RR Filter Tag Read Accesses: 69537131
L1 IP Table Tag Write Accesses: 8636111
L1 IP Table Tag Read Accesses: 8636111
L1 RST Tag Write Accesses: 0
L1 RST Tag Read Accesses: 6978628
L1 RR Filter Write Accesses: 0
L1 RR Filter Read Accesses: 2461650
test: 165506
L2 IP Table Read Accesses: 2107278
L2 IP Table Write Accesses: 2660796
L2 IP Table Tag Read Accesses: 1447062
L2 IP Table Tag Write Accesses: 1447062

DRAM Statistics
 CHANNEL 0
 RQ ROW_BUFFER_HIT:      22091  ROW_BUFFER_MISS:      55199
 DBUS_CONGESTED:         37
 WQ ROW_BUFFER_HIT:        792  ROW_BUFFER_MISS:       2832  FULL:          0

 AVG_CONGESTED_CYCLE: 4
 All warmup complete: 2
Channel 0 Bank busy for read cycles: 0
Channel 0 Bank busy for write cycles: 0
Channel 0
Rank 0
0banks busy for read cycles: 119629505
0banks busy for write cycles: 2181
1banks busy for read cycles: 2029350
1banks busy for write cycles: 370132
2banks busy for read cycles: 1179636
2banks busy for write cycles: 108943
3banks busy for read cycles: 622575
3banks busy for write cycles: 43805
4banks busy for read cycles: 362153
4banks busy for write cycles: 15924
5banks busy for read cycles: 180792
5banks busy for write cycles: 5873
6banks busy for read cycles: 76511
6banks busy for write cycles: 1652
7banks busy for read cycles: 28813
7banks busy for write cycles: 654
8banks busy for read cycles: 14384
8banks busy for write cycles: 295

CPU 0 Branch Prediction Accuracy: 92.2332% MPKI: 14.6271 Average ROB Occupancy at Mispredict: 19.3302
Branch types
NOT_BRANCH: 40583277 81.1666%
BRANCH_DIRECT_JUMP: 525618 1.05124%
BRANCH_INDIRECT: 166508 0.333016%
BRANCH_CONDITIONAL: 6375895 12.7518%
BRANCH_DIRECT_CALL: 988709 1.97742%
BRANCH_INDIRECT_CALL: 185503 0.371006%
BRANCH_RETURN: 1174213 2.34843%
BRANCH_OTHER: 0 0%

@sumon_overall_L1D    262633     48341    268343    531018   1804820   1804828
@Sumon_Early_by_class_L1D     16676     97266    148044         2
@Sumon_Late_by_class_L1D     26199      2806      7736         2

@Sumon_Early_by_cycle_L1D    237098      7891      2743      2609       332      3530      1750      1925      2532      2094       125         4
@Sumon_Late_by_cycle_L1D     46837      1477        27         0         0         0         0         0         0         0         0         0
@Sumon_Early_stream_L1D      6599      2519      1292       997       150      1377       745       791      1249       912        45         0
@Sumon_Early_CS_L1D     94198      2497        93       373        22        29         7        18         4        25         0         0
@Sumon_Early_CPLX_L1D    135969      2726      1327      1237       158      2085       965      1106      1254      1133        80         4
@Sumon_Late_stream_L1D     25216       963        20         0         0         0         0         0         0         0         0         0
@Sumon_Late_CS_L1D      2609       196         1         0         0         0         0         0         0         0         0         0
@Sumon_Late_CPLX_L1D      7474       258         4         0         0         0         0         0         0         0         0         0
@sumon_overall_L2C     11052      1699    196712    207893   1055460   1055460
@Sumon_Early_by_class_L2C       728       194      1064         0
@Sumon_Late_by_class_L2C         0        79         0         0

@Sumon_Early_by_cycle_L2C      1975      1276      1150       491       320      1228       724       542       501       304       471      2070
@Sumon_Late_by_cycle_L2C      1001       695         3         0         0         0         0         0         0         0         0         0
@Sumon_Early_stream_L2C         0         1         0         0         0         0         0         1         0        21       162       543
@Sumon_Early_CS_L2C        31         9         0         0         0         0         0         0         0         0         1       153
@Sumon_Early_CPLX_L2C         0         0         1         0         1         1         0         2        57       127        60       815
@Sumon_Late_stream_L2C         0         0         0         0         0         0         0         0         0         0         0         0
@Sumon_Late_CS_L2C        73         6         0         0         0         0         0         0         0         0         0         0
@Sumon_Late_CPLX_L2C         0         0         0         0         0         0         0         0         0         0         0         0
DRAM PAGES: 1048576
Allocated PAGES: 5445
