
*** ChampSim Multicore Out-of-Order Simulator ***

Warmup Instructions: 10000000
Simulation Instructions: 50000000
Number of CPUs: 1
LLC sets: 2048
LLC ways: 16
Off-chip DRAM Size: 4096 MB Channels: 1 Width: 64-bit Data Rate: 6400 MT/s
CPU 0 runs traces/clientserver/server_033.champsimtrace.xz
.xz
CPU 0 Bimodal branch predictor
BTB has LRU replacement policy
ITLB has LRU replacement policy
DTLB has LRU replacement policy
STLB has LRU replacement policy
L1I has LRU replacement policy
IP Table Entries: 256
Initialize SRRIP state for L1D
IP_Table L2 entries: 256
Initialize SRRIP state for L2C
LLC has LRU replacement policy
Heartbeat CPU 0 instructions: 10000001 cycles: 2765971 heartbeat IPC: 3.61537 cumulative IPC: 3.61537 (Simulation time: 0 hr 8 min 23 sec) 

Warmup complete CPU 0 instructions: 10000001 cycles: 2765971 (Simulation time: 0 hr 8 min 23 sec) 

Heartbeat CPU 0 instructions: 20000003 cycles: 22805481 heartbeat IPC: 0.499014 cumulative IPC: 0.499014 (Simulation time: 0 hr 16 min 26 sec) 
Heartbeat CPU 0 instructions: 30000000 cycles: 43364331 heartbeat IPC: 0.486408 cumulative IPC: 0.492631 (Simulation time: 0 hr 24 min 38 sec) 
Heartbeat CPU 0 instructions: 40000001 cycles: 63369200 heartbeat IPC: 0.499878 cumulative IPC: 0.495023 (Simulation time: 0 hr 32 min 41 sec) 
Heartbeat CPU 0 instructions: 50000000 cycles: 83476851 heartbeat IPC: 0.497323 cumulative IPC: 0.495596 (Simulation time: 0 hr 40 min 40 sec) 
Heartbeat CPU 0 instructions: 60000003 cycles: 103515361 heartbeat IPC: 0.499039 cumulative IPC: 0.496281 (Simulation time: 0 hr 48 min 23 sec) 
Finished CPU 0 instructions: 50000002 cycles: 100749390 cumulative IPC: 0.496281 (Simulation time: 0 hr 48 min 23 sec) 

ChampSim completed all CPUs

Region of Interest Statistics

CPU 0 cumulative IPC: 0.496281 instructions: 50000002 cycles: 100749390
ITLB TOTAL     ACCESS:    8920764  HIT:    8418257  MISS:     502507  HIT %:     94.367  MISS %:      5.633   MPKI: 10.0501
ITLB LOAD TRANSLATION ACCESS:    8920764  HIT:    8418257  MISS:     502507  HIT %:     94.367  MISS %:      5.633   MPKI: 10.0501
ITLB PREFETCH  REQUESTED:          0  ISSUED:          0  USEFUL:          0  USELESS:          0
ITLB USEFUL LOAD PREFETCHES:          0 PREFETCH ISSUED TO LOWER LEVEL:          0  ACCURACY: -nan
ITLB TIMELY PREFETCHES:          0 LATE PREFETCHES: 0 DROPPED PREFETCHES: 0
ITLB PREFETCHES SAME FILL-ORIGIN LEVEL: 0 DIFFERENT FILL-ORIGIN LEVEL: 0
ITLB AVERAGE MISS LATENCY: 9.06087 cycles
ITLB RQ	ACCESS:   10593228	FORWARD:          0	MERGED:    1547362	TO_CACHE:    9045866

DTLB TOTAL     ACCESS:   10750824  HIT:   10305819  MISS:     445005  HIT %:    95.8607  MISS %:    4.13926   MPKI: 8.9001
DTLB LOAD TRANSLATION ACCESS:   10750824  HIT:   10305819  MISS:     445005  HIT %:    95.8607  MISS %:    4.13926   MPKI: 8.9001
DTLB PREFETCH  REQUESTED:          0  ISSUED:          0  USEFUL:          0  USELESS:          0
DTLB USEFUL LOAD PREFETCHES:          0 PREFETCH ISSUED TO LOWER LEVEL:          0  ACCURACY: -nan
DTLB TIMELY PREFETCHES:          0 LATE PREFETCHES: 0 DROPPED PREFETCHES: 0
DTLB PREFETCHES SAME FILL-ORIGIN LEVEL: 0 DIFFERENT FILL-ORIGIN LEVEL: 0
DTLB AVERAGE MISS LATENCY: 9.71862 cycles
DTLB RQ	ACCESS:   14292221	FORWARD:          0	MERGED:    3527346	TO_CACHE:   10764875

STLB TOTAL     ACCESS:    1197588  HIT:    1193085  MISS:       4503  HIT %:     99.624  MISS %:   0.376006   MPKI: 0.09006
STLB LOAD TRANSLATION ACCESS:     947512  HIT:     943009  MISS:       4503  HIT %:    99.5248  MISS %:   0.475245   MPKI: 0.09006
STLB TRANSLATION FROM L1D PREFETCHER ACCESS:     250076  HIT:     250076  MISS:          0  HIT %:        100  MISS %:          0   MPKI: 0
STLB PREFETCH  REQUESTED:          0  ISSUED:          0  USEFUL:          0  USELESS:          0
STLB USEFUL LOAD PREFETCHES:          0 PREFETCH ISSUED TO LOWER LEVEL:          0  ACCURACY: -nan
STLB TIMELY PREFETCHES:          0 LATE PREFETCHES: 0 DROPPED PREFETCHES: 0
STLB PREFETCHES SAME FILL-ORIGIN LEVEL: 0 DIFFERENT FILL-ORIGIN LEVEL: 0
STLB AVERAGE MISS LATENCY: 73.6647 cycles
STLB RQ	ACCESS:    1315083	FORWARD:          0	MERGED:     117495	TO_CACHE:    1197588

STLB Hit, L1D data hit: 0
STLB Hit, L2C data hit: 0
STLB Hit, LLC data hit: 0
STLB Hit, LLC data miss: 0
STLB STLB hints to L2: 0
L1D TOTAL     ACCESS:   14551939  HIT:   13773290  MISS:     778649  HIT %:    94.6492  MISS %:    5.35083   MPKI: 15.573
L1D LOAD      ACCESS:    7847235  HIT:    7323969  MISS:     523266  HIT %:    93.3318  MISS %:    6.66816   MPKI: 10.4653
L1D RFO       ACCESS:    6350394  HIT:    6264704  MISS:      85690  HIT %:    98.6506  MISS %:    1.34937   MPKI: 1.7138
L1D PREFETCH  ACCESS:     354310  HIT:     184617  MISS:     169693  HIT %:    52.1061  MISS %:    47.8939   MPKI: 3.39386
L1D PREFETCH  REQUESTED:     735860  ISSUED:     735823  USEFUL:      11938  USELESS:     157723
L1D USEFUL LOAD PREFETCHES:      11938 PREFETCH ISSUED TO LOWER LEVEL:     170965  ACCURACY: 6.98272
L1D TIMELY PREFETCHES:      11938 LATE PREFETCHES: 1167 DROPPED PREFETCHES: 0
L1D PREFETCHES SAME FILL-ORIGIN LEVEL: 170965 DIFFERENT FILL-ORIGIN LEVEL: 0
L1D AVERAGE MISS LATENCY: 71950.7 cycles
L1D RQ	ACCESS:   11160545	FORWARD:          0	MERGED:    3147597	TO_CACHE:    7866842
L1D WQ	ACCESS:    6511082	FORWARD:     146787	MERGED:      85703	TO_CACHE:    6425379
L1D PQ	ACCESS:     368252	FORWARD:          0	MERGED:          0	TO_CACHE:     367571

L1D UNIQUE REGIONS ACCESSED: 0
L1D REGIONS CONFLICTS: 0
L1D Cross Page Prefetch Requests: 0
L1D Same Page Prefetch Requests: 431025
L1D ROI Sum of L1D PQ occupancy: 4820663
L1D PREFETCHES PUSHED FROM L2C: 0
L1I TOTAL     ACCESS:    9856276  HIT:    6556839  MISS:    3299437  HIT %:    66.5245  MISS %:    33.4755   MPKI: 65.9887
L1I LOAD      ACCESS:    9856276  HIT:    6556839  MISS:    3299437  HIT %:    66.5245  MISS %:    33.4755   MPKI: 65.9887
L1I PREFETCH  REQUESTED:          0  ISSUED:          0  USEFUL:          0  USELESS:          0
L1I USEFUL LOAD PREFETCHES:          0 PREFETCH ISSUED TO LOWER LEVEL:          0  ACCURACY: -nan
L1I TIMELY PREFETCHES:          0 LATE PREFETCHES: 0 DROPPED PREFETCHES: 0
L1I PREFETCHES SAME FILL-ORIGIN LEVEL: 0 DIFFERENT FILL-ORIGIN LEVEL: 0
L1I AVERAGE MISS LATENCY: 14.4821 cycles
L1I RQ	ACCESS:   14711407	FORWARD:          0	MERGED:    4118179	TO_CACHE:   10593228

BTB TOTAL     ACCESS:    6383750  HIT:    5391163  MISS:     992587  HIT %:    84.4513  MISS %:    15.5487   MPKI: 19.8517
BTB BRANCH_DIRECT_JUMP	ACCESS:     773784  HIT:     695908  MISS:      77876
BTB BRANCH_INDIRECT	ACCESS:     108782  HIT:      73994  MISS:      34788
BTB BRANCH_CONDITIONAL	ACCESS:    2979726  HIT:    2766987  MISS:     212739
BTB BRANCH_DIRECT_CALL	ACCESS:    1049282  HIT:     930755  MISS:     118527
BTB BRANCH_INDIRECT_CALL	ACCESS:     211458  HIT:     142846  MISS:      68612
BTB BRANCH_RETURN	ACCESS:    1260718  HIT:     780673  MISS:     480045
BTB BRANCH_OTHER ACCESS:          0  HIT:          0  MISS:          0

L2C TOTAL     ACCESS:    4767450  HIT:    4464285  MISS:     303165  HIT %:    93.6409  MISS %:    6.35906   MPKI: 6.0633
L2C LOAD      ACCESS:    3821517  HIT:    3674471  MISS:     147046  HIT %:    96.1522  MISS %:    3.84784   MPKI: 2.94092
L2C DATA LOAD MPKI: 2.27142
L2C INSTRUCTION LOAD MPKI: 0.6695
L2C RFO       ACCESS:      85584  HIT:      65543  MISS:      20041  HIT %:    76.5832  MISS %:    23.4168   MPKI: 0.40082
L2C PREFETCH  ACCESS:     635755  HIT:     507805  MISS:     127950  HIT %:    79.8743  MISS %:    20.1257   MPKI: 2.559
L2C DATA PREFETCH MPKI: 2.559
L2C INSTRUCTION PREFETCH MPKI: 0
L2C WRITEBACK ACCESS:     219556  HIT:     214339  MISS:       5217  HIT %:    97.6238  MISS %:    2.37616   MPKI: 0.10434
L2C LOAD TRANSLATION ACCESS:       5038  HIT:       2127  MISS:       2911  HIT %:    42.2191  MISS %:    57.7809   MPKI: 0.05822
L2C PREFETCH  REQUESTED:     476901  ISSUED:     476901  USEFUL:      48278  USELESS:      79458
L2C USEFUL LOAD PREFETCHES:      48278 PREFETCH ISSUED TO LOWER LEVEL:     129544  ACCURACY: 37.2676
L2C TIMELY PREFETCHES:      48278 LATE PREFETCHES: 1594 DROPPED PREFETCHES: 0
L2C PREFETCHES SAME FILL-ORIGIN LEVEL: 94159 DIFFERENT FILL-ORIGIN LEVEL: 0
L2C AVERAGE MISS LATENCY: 48.5234 cycles
L2C RQ	ACCESS:    3912159	FORWARD:          0	MERGED:          0	TO_CACHE:    3912139
L2C WQ	ACCESS:     219556	FORWARD:         21	MERGED:          0	TO_CACHE:     219556
L2C PQ	ACCESS:     647866	FORWARD:          0	MERGED:       4412	TO_CACHE:     643453

L2C Instructions Evicting Data 19927
L2C Translations Evicting Data 2641
L2C Data Evicting Data 240155
L2C Instructions Evicting Instructions 13345
L2C Translations Evicting Instructions 240
L2C Data Evicting Instructions 18777
L2C Instructions Evicting Translations 203
L2C Translations Evicting Translations 30
L2C Data Evicting Translations 2630
L2C Dense regions hint from L2: 0
PSCL5 TOTAL     ACCESS:       4503  HIT:       4503  MISS:          0  HIT %:        100  MISS %:          0   MPKI: 0
PSCL5 LOAD TRANSLATION ACCESS:       4503  HIT:       4503  MISS:          0  HIT %:        100  MISS %:          0   MPKI: 0
PSCL5 PREFETCH  REQUESTED:          0  ISSUED:          0  USEFUL:          0  USELESS:          0
PSCL5 USEFUL LOAD PREFETCHES:          0 PREFETCH ISSUED TO LOWER LEVEL:          0  ACCURACY: -nan
PSCL5 TIMELY PREFETCHES:          0 LATE PREFETCHES: 0 DROPPED PREFETCHES: 0
PSCL5 PREFETCHES SAME FILL-ORIGIN LEVEL: 0 DIFFERENT FILL-ORIGIN LEVEL: 0

PSCL4 TOTAL     ACCESS:       4461  HIT:       4451  MISS:         10  HIT %:    99.7758  MISS %:   0.224165   MPKI: 0.0002
PSCL4 LOAD TRANSLATION ACCESS:       4461  HIT:       4451  MISS:         10  HIT %:    99.7758  MISS %:   0.224165   MPKI: 0.0002
PSCL4 PREFETCH  REQUESTED:          0  ISSUED:          0  USEFUL:          0  USELESS:          0
PSCL4 USEFUL LOAD PREFETCHES:          0 PREFETCH ISSUED TO LOWER LEVEL:          0  ACCURACY: -nan
PSCL4 TIMELY PREFETCHES:          0 LATE PREFETCHES: 0 DROPPED PREFETCHES: 0
PSCL4 PREFETCHES SAME FILL-ORIGIN LEVEL: 0 DIFFERENT FILL-ORIGIN LEVEL: 0

PSCL3 TOTAL     ACCESS:       4483  HIT:       4473  MISS:         10  HIT %:    99.7769  MISS %:   0.223065   MPKI: 0.0002
PSCL3 LOAD TRANSLATION ACCESS:       4483  HIT:       4473  MISS:         10  HIT %:    99.7769  MISS %:   0.223065   MPKI: 0.0002
PSCL3 PREFETCH  REQUESTED:          0  ISSUED:          0  USEFUL:          0  USELESS:          0
PSCL3 USEFUL LOAD PREFETCHES:          0 PREFETCH ISSUED TO LOWER LEVEL:          0  ACCURACY: -nan
PSCL3 TIMELY PREFETCHES:          0 LATE PREFETCHES: 0 DROPPED PREFETCHES: 0
PSCL3 PREFETCHES SAME FILL-ORIGIN LEVEL: 0 DIFFERENT FILL-ORIGIN LEVEL: 0

PSCL2 TOTAL     ACCESS:       4503  HIT:       3984  MISS:        519  HIT %:    88.4744  MISS %:    11.5256   MPKI: 0.01038
PSCL2 LOAD TRANSLATION ACCESS:       4503  HIT:       3984  MISS:        519  HIT %:    88.4744  MISS %:    11.5256   MPKI: 0.01038
PSCL2 PREFETCH  REQUESTED:          0  ISSUED:          0  USEFUL:          0  USELESS:          0
PSCL2 USEFUL LOAD PREFETCHES:          0 PREFETCH ISSUED TO LOWER LEVEL:          0  ACCURACY: -nan
PSCL2 TIMELY PREFETCHES:          0 LATE PREFETCHES: 0 DROPPED PREFETCHES: 0
PSCL2 PREFETCHES SAME FILL-ORIGIN LEVEL: 0 DIFFERENT FILL-ORIGIN LEVEL: 0

LLC TOTAL     ACCESS:     398112  HIT:     360070  MISS:      38042  HIT %:    90.4444  MISS %:     9.5556   MPKI: 0.76084
LLC LOAD      ACCESS:     145575  HIT:     131419  MISS:      14156  HIT %:    90.2758  MISS %:     9.7242   MPKI: 0.28312
LLC RFO       ACCESS:      19917  HIT:      16345  MISS:       3572  HIT %:    82.0656  MISS %:    17.9344   MPKI: 0.07144
LLC PREFETCH  ACCESS:     129544  HIT:     109776  MISS:      19768  HIT %:    84.7403  MISS %:    15.2597   MPKI: 0.39536
LLC WRITEBACK ACCESS:     100165  HIT:      99961  MISS:        204  HIT %:    99.7963  MISS %:   0.203664   MPKI: 0.00408
LLC LOAD TRANSLATION ACCESS:       2911  HIT:       2569  MISS:        342  HIT %:    88.2515  MISS %:    11.7485   MPKI: 0.00684
LLC PREFETCH  REQUESTED:          0  ISSUED:          0  USEFUL:       2943  USELESS:      12022
LLC USEFUL LOAD PREFETCHES:       2943 PREFETCH ISSUED TO LOWER LEVEL:      19768  ACCURACY: 14.8877
LLC TIMELY PREFETCHES:       2943 LATE PREFETCHES: 0 DROPPED PREFETCHES: 0
LLC PREFETCHES SAME FILL-ORIGIN LEVEL: 0 DIFFERENT FILL-ORIGIN LEVEL: 0
LLC AVERAGE MISS LATENCY: 152.36 cycles
LLC RQ	ACCESS:     168404	FORWARD:          0	MERGED:          0	TO_CACHE:     168403
LLC WQ	ACCESS:     100165	FORWARD:          1	MERGED:          0	TO_CACHE:     100165
LLC PQ	ACCESS:     129544	FORWARD:          0	MERGED:          0	TO_CACHE:     129544

LLC Dense regions hint to LLC: 0

RAW hits: 900550
Loads Generated: 12061095
Loads sent to L1D: 11160545
Stores Generated: 6511091
Stores sent to L1D: 6511082
Major fault: 0 Minor fault: 2442
Allocated PAGES: 2442

stream: 
stream:times selected: 469682
stream:pref_filled: 112513
stream:pref_useful: 6834
stream:pref_late: 389
stream:misses: 10671
stream:misses_by_poll: 0

CS: 
CS:times selected: 8499
CS:pref_filled: 2142
CS:pref_useful: 1509
CS:pref_late: 559
CS:misses: 141
CS:misses_by_poll: 37

CPLX: 
CPLX:times selected: 454777
CPLX:pref_filled: 81875
CPLX:pref_useful: 4852
CPLX:pref_late: 470
CPLX:misses: 41811
CPLX:misses_by_poll: 33

NL_L1: 
NL:times selected: 2102
NL:pref_filled: 1440
NL:pref_useful: 22
NL:pref_late: 9
NL:misses: 212
NL:misses_by_poll: 0

total selections: 935060
total_filled: 169693
total_useful: 11938
total_late: 1593
total_polluted: 70
total_misses_after_warmup: 542876
conflicts: 3268762
Degree Incremented Times: 0
Degree Decremented Times: 250870

L1 IP Table Write Accesses: 4366532
L1 IP Table Read Accesses: 1097770
L1 RST Write Accesses: 407354
L1 RST Read Accesses: 814708
L1 CSPT Write Accesses: 407354
L1 CSPT Read Accesses: 801050
L1 RR Filter Tag Write Accesses: 368289
L1 RR Filter Tag Read Accesses: 17681676
L1 IP Table Tag Write Accesses: 7866845
L1 IP Table Tag Read Accesses: 7866845
L1 RST Tag Write Accesses: 0
L1 RST Tag Read Accesses: 4312778
L1 RR Filter Write Accesses: 0
L1 RR Filter Read Accesses: 617672
test: 221699
L2 IP Table Read Accesses: 895846
L2 IP Table Write Accesses: 1240916
L2 IP Table Tag Read Accesses: 688107
L2 IP Table Tag Write Accesses: 688107

DRAM Statistics
 CHANNEL 0
 RQ ROW_BUFFER_HIT:       9654  ROW_BUFFER_MISS:      28183
 DBUS_CONGESTED:         24
 WQ ROW_BUFFER_HIT:       1493  ROW_BUFFER_MISS:      10058  FULL:          0

 AVG_CONGESTED_CYCLE: 4
 All warmup complete: 2
Channel 0 Bank busy for read cycles: 0
Channel 0 Bank busy for write cycles: 0
Channel 0
Rank 0
0banks busy for read cycles: 96492801
0banks busy for write cycles: 6534
1banks busy for read cycles: 1694773
1banks busy for write cycles: 938105
2banks busy for read cycles: 837230
2banks busy for write cycles: 222230
3banks busy for read cycles: 223627
3banks busy for write cycles: 89190
4banks busy for read cycles: 85934
4banks busy for write cycles: 40294
5banks busy for read cycles: 31482
5banks busy for write cycles: 20040
6banks busy for read cycles: 10557
6banks busy for write cycles: 13762
7banks busy for read cycles: 7056
7banks busy for write cycles: 14165
8banks busy for read cycles: 7205
8banks busy for write cycles: 14406

CPU 0 Branch Prediction Accuracy: 93.323% MPKI: 13.056 Average ROB Occupancy at Mispredict: 18.7945
Branch types
NOT_BRANCH: 40222847 80.4457%
BRANCH_DIRECT_JUMP: 773784 1.54757%
BRANCH_INDIRECT: 108782 0.217564%
BRANCH_CONDITIONAL: 6372831 12.7457%
BRANCH_DIRECT_CALL: 1049282 2.09856%
BRANCH_INDIRECT_CALL: 211458 0.422916%
BRANCH_RETURN: 1260718 2.52144%
BRANCH_OTHER: 0 0%

@sumon_overall_L1D     11938      1167    157723    169693    735823    735860
@Sumon_Early_by_class_L1D      5499      1449      4254         0
@Sumon_Late_by_class_L1D       161       558       299         0

@Sumon_Early_by_cycle_L1D      3662      2029      1587      1092       746       903       543       798        95       262       189        32
@Sumon_Late_by_cycle_L1D      1011       155         1         0         0         0         0         0         0         0         0         0
@Sumon_Early_stream_L1D      1410      1093      1249       658        14       234       306       253        35        83       144        20
@Sumon_Early_CS_L1D       584       546        62       123        50        28         9        14        25         8         0         0
@Sumon_Early_CPLX_L1D      1291       333       209       192       680       640       120       527        35       171        45        11
@Sumon_Late_stream_L1D       159         1         1         0         0         0         0         0         0         0         0         0
@Sumon_Late_CS_L1D       421       137         0         0         0         0         0         0         0         0         0         0
@Sumon_Late_CPLX_L1D       282        17         0         0         0         0         0         0         0         0         0         0
@sumon_overall_L2C     48278      1594     79458    127950    476901    476901
@Sumon_Early_by_class_L2C      1568        57      1124         0
@Sumon_Late_by_class_L2C         0         0         0         0

@Sumon_Early_by_cycle_L2C      7539      4978      5405      3704      1957      6096      1603        96      1444      5685      5671      4100
@Sumon_Late_by_cycle_L2C      1385       208         1         0         0         0         0         0         0         0         0         0
@Sumon_Early_stream_L2C         0         0         0         0         0         1         0         4         3        55       775       730
@Sumon_Early_CS_L2C         0         0         0         0         0         0         0         0        10        30         9         8
@Sumon_Early_CPLX_L2C         0         0         0         0         0         1         5         3         7        65       238       805
@Sumon_Late_stream_L2C         0         0         0         0         0         0         0         0         0         0         0         0
@Sumon_Late_CS_L2C         0         0         0         0         0         0         0         0         0         0         0         0
@Sumon_Late_CPLX_L2C         0         0         0         0         0         0         0         0         0         0         0         0
DRAM PAGES: 1048576
Allocated PAGES: 2442
