
*** ChampSim Multicore Out-of-Order Simulator ***

Warmup Instructions: 10000000
Simulation Instructions: 50000000
Number of CPUs: 1
LLC sets: 2048
LLC ways: 16
Off-chip DRAM Size: 4096 MB Channels: 1 Width: 64-bit Data Rate: 6400 MT/s
CPU 0 runs traces/clientserver/server_026.champsimtrace.xz
.xz
CPU 0 Bimodal branch predictor
BTB has LRU replacement policy
ITLB has LRU replacement policy
DTLB has LRU replacement policy
STLB has LRU replacement policy
L1I has LRU replacement policy
IP Table Entries: 256
Initialize SRRIP state for L1D
IP_Table L2 entries: 256
Initialize SRRIP state for L2C
LLC has LRU replacement policy
Heartbeat CPU 0 instructions: 10000000 cycles: 2884927 heartbeat IPC: 3.46629 cumulative IPC: 3.46629 (Simulation time: 0 hr 8 min 54 sec) 

Warmup complete CPU 0 instructions: 10000001 cycles: 2884928 (Simulation time: 0 hr 8 min 54 sec) 

Heartbeat CPU 0 instructions: 20000002 cycles: 27546790 heartbeat IPC: 0.405484 cumulative IPC: 0.405484 (Simulation time: 0 hr 17 min 27 sec) 
Heartbeat CPU 0 instructions: 30000000 cycles: 52113954 heartbeat IPC: 0.407047 cumulative IPC: 0.406264 (Simulation time: 0 hr 26 min 0 sec) 
Heartbeat CPU 0 instructions: 40000002 cycles: 76740385 heartbeat IPC: 0.406068 cumulative IPC: 0.406199 (Simulation time: 0 hr 34 min 38 sec) 
Heartbeat CPU 0 instructions: 50000000 cycles: 101188712 heartbeat IPC: 0.409026 cumulative IPC: 0.406902 (Simulation time: 0 hr 43 min 10 sec) 
*** Reached end of trace for Core: 0 Repeating trace: traces/clientserver/server_026.champsimtrace.xz
Heartbeat CPU 0 instructions: 60000000 cycles: 125876529 heartbeat IPC: 0.405058 cumulative IPC: 0.406532 (Simulation time: 0 hr 50 min 31 sec) 
Finished CPU 0 instructions: 50000001 cycles: 122991609 cumulative IPC: 0.406532 (Simulation time: 0 hr 50 min 31 sec) 

ChampSim completed all CPUs

Region of Interest Statistics

CPU 0 cumulative IPC: 0.406532 instructions: 50000001 cycles: 122991609
ITLB TOTAL     ACCESS:    8436188  HIT:    7949041  MISS:     487147  HIT %:    94.2255  MISS %:    5.77449   MPKI: 9.74294
ITLB LOAD TRANSLATION ACCESS:    8436188  HIT:    7949041  MISS:     487147  HIT %:    94.2255  MISS %:    5.77449   MPKI: 9.74294
ITLB PREFETCH  REQUESTED:          0  ISSUED:          0  USEFUL:          0  USELESS:          0
ITLB USEFUL LOAD PREFETCHES:          0 PREFETCH ISSUED TO LOWER LEVEL:          0  ACCURACY: -nan
ITLB TIMELY PREFETCHES:          0 LATE PREFETCHES: 0 DROPPED PREFETCHES: 0
ITLB PREFETCHES SAME FILL-ORIGIN LEVEL: 0 DIFFERENT FILL-ORIGIN LEVEL: 0
ITLB AVERAGE MISS LATENCY: 9.06573 cycles
ITLB RQ	ACCESS:   10062693	FORWARD:          0	MERGED:    1503044	TO_CACHE:    8559649

DTLB TOTAL     ACCESS:   12567120  HIT:   12090116  MISS:     477004  HIT %:    96.2043  MISS %:    3.79565   MPKI: 9.54008
DTLB LOAD TRANSLATION ACCESS:   12567120  HIT:   12090116  MISS:     477004  HIT %:    96.2043  MISS %:    3.79565   MPKI: 9.54008
DTLB PREFETCH  REQUESTED:          0  ISSUED:          0  USEFUL:          0  USELESS:          0
DTLB USEFUL LOAD PREFETCHES:          0 PREFETCH ISSUED TO LOWER LEVEL:          0  ACCURACY: -nan
DTLB TIMELY PREFETCHES:          0 LATE PREFETCHES: 0 DROPPED PREFETCHES: 0
DTLB PREFETCHES SAME FILL-ORIGIN LEVEL: 0 DIFFERENT FILL-ORIGIN LEVEL: 0
DTLB AVERAGE MISS LATENCY: 9.39024 cycles
DTLB RQ	ACCESS:   15682058	FORWARD:          0	MERGED:    3094296	TO_CACHE:   12587762

STLB TOTAL     ACCESS:    1399813  HIT:    1397577  MISS:       2236  HIT %:    99.8403  MISS %:   0.159736   MPKI: 0.04472
STLB LOAD TRANSLATION ACCESS:     964151  HIT:     961915  MISS:       2236  HIT %:    99.7681  MISS %:   0.231914   MPKI: 0.04472
STLB TRANSLATION FROM L1D PREFETCHER ACCESS:     435662  HIT:     435662  MISS:          0  HIT %:        100  MISS %:          0   MPKI: 0
STLB PREFETCH  REQUESTED:          0  ISSUED:          0  USEFUL:          0  USELESS:          0
STLB USEFUL LOAD PREFETCHES:          0 PREFETCH ISSUED TO LOWER LEVEL:          0  ACCURACY: -nan
STLB TIMELY PREFETCHES:          0 LATE PREFETCHES: 0 DROPPED PREFETCHES: 0
STLB PREFETCHES SAME FILL-ORIGIN LEVEL: 0 DIFFERENT FILL-ORIGIN LEVEL: 0
STLB AVERAGE MISS LATENCY: 93.0505 cycles
STLB RQ	ACCESS:    1528837	FORWARD:          0	MERGED:     129023	TO_CACHE:    1399814

STLB Hit, L1D data hit: 0
STLB Hit, L2C data hit: 0
STLB Hit, LLC data hit: 0
STLB Hit, LLC data miss: 0
STLB STLB hints to L2: 0
L1D TOTAL     ACCESS:   15725677  HIT:   14526023  MISS:    1199654  HIT %:    92.3714  MISS %:    7.62863   MPKI: 23.9931
L1D LOAD      ACCESS:    8801946  HIT:    8057266  MISS:     744680  HIT %:    91.5396  MISS %:     8.4604   MPKI: 14.8936
L1D RFO       ACCESS:    6413648  HIT:    6127451  MISS:     286197  HIT %:    95.5377  MISS %:    4.46231   MPKI: 5.72394
L1D PREFETCH  ACCESS:     510083  HIT:     341306  MISS:     168777  HIT %:    66.9119  MISS %:    33.0881   MPKI: 3.37554
L1D PREFETCH  REQUESTED:    1129615  ISSUED:    1129615  USEFUL:      57697  USELESS:     111086
L1D USEFUL LOAD PREFETCHES:      57697 PREFETCH ISSUED TO LOWER LEVEL:     208800  ACCURACY: 27.6327
L1D TIMELY PREFETCHES:      57697 LATE PREFETCHES: 39699 DROPPED PREFETCHES: 0
L1D PREFETCHES SAME FILL-ORIGIN LEVEL: 208800 DIFFERENT FILL-ORIGIN LEVEL: 0
L1D AVERAGE MISS LATENCY: 2.14594e+06 cycles
L1D RQ	ACCESS:   12094714	FORWARD:          0	MERGED:    3151039	TO_CACHE:    8829576
L1D WQ	ACCESS:    6899106	FORWARD:     114342	MERGED:      46624	TO_CACHE:    6852482
L1D PQ	ACCESS:     564929	FORWARD:          0	MERGED:          0	TO_CACHE:     564686

L1D UNIQUE REGIONS ACCESSED: 0
L1D REGIONS CONFLICTS: 0
L1D Cross Page Prefetch Requests: 0
L1D Same Page Prefetch Requests: 669442
L1D ROI Sum of L1D PQ occupancy: 7252189
L1D PREFETCHES PUSHED FROM L2C: 0
L1I TOTAL     ACCESS:    9609299  HIT:    6874788  MISS:    2734511  HIT %:    71.5431  MISS %:    28.4569   MPKI: 54.6902
L1I LOAD      ACCESS:    9609299  HIT:    6874788  MISS:    2734511  HIT %:    71.5431  MISS %:    28.4569   MPKI: 54.6902
L1I PREFETCH  REQUESTED:          0  ISSUED:          0  USEFUL:          0  USELESS:          0
L1I USEFUL LOAD PREFETCHES:          0 PREFETCH ISSUED TO LOWER LEVEL:          0  ACCURACY: -nan
L1I TIMELY PREFETCHES:          0 LATE PREFETCHES: 0 DROPPED PREFETCHES: 0
L1I PREFETCHES SAME FILL-ORIGIN LEVEL: 0 DIFFERENT FILL-ORIGIN LEVEL: 0
L1I AVERAGE MISS LATENCY: 17.8269 cycles
L1I RQ	ACCESS:   13806984	FORWARD:          0	MERGED:    3744291	TO_CACHE:   10062693

BTB TOTAL     ACCESS:    5982231  HIT:    3991091  MISS:    1991140  HIT %:    66.7158  MISS %:    33.2842   MPKI: 39.8228
BTB BRANCH_DIRECT_JUMP	ACCESS:     522633  HIT:     348042  MISS:     174591
BTB BRANCH_INDIRECT	ACCESS:     204723  HIT:     167232  MISS:      37491
BTB BRANCH_CONDITIONAL	ACCESS:    3049094  HIT:    2491586  MISS:     557508
BTB BRANCH_DIRECT_CALL	ACCESS:     929734  HIT:     525672  MISS:     404062
BTB BRANCH_INDIRECT_CALL	ACCESS:     173167  HIT:      95072  MISS:      78095
BTB BRANCH_RETURN	ACCESS:    1102880  HIT:     363487  MISS:     739393
BTB BRANCH_OTHER ACCESS:          0  HIT:          0  MISS:          0

L2C TOTAL     ACCESS:    5041892  HIT:    4402937  MISS:     638955  HIT %:    87.3271  MISS %:    12.6729   MPKI: 12.7791
L2C LOAD      ACCESS:    3439450  HIT:    3027288  MISS:     412162  HIT %:    88.0166  MISS %:    11.9834   MPKI: 8.24324
L2C DATA LOAD MPKI: 1.54544
L2C INSTRUCTION LOAD MPKI: 6.6978
L2C RFO       ACCESS:     285869  HIT:     211821  MISS:      74048  HIT %:    74.0972  MISS %:    25.9028   MPKI: 1.48096
L2C PREFETCH  ACCESS:     809199  HIT:     679262  MISS:     129937  HIT %:    83.9425  MISS %:    16.0575   MPKI: 2.59874
L2C DATA PREFETCH MPKI: 2.59874
L2C INSTRUCTION PREFETCH MPKI: 0
L2C WRITEBACK ACCESS:     504987  HIT:     483858  MISS:      21129  HIT %:    95.8159  MISS %:    4.18407   MPKI: 0.42258
L2C LOAD TRANSLATION ACCESS:       2387  HIT:        708  MISS:       1679  HIT %:    29.6607  MISS %:    70.3393   MPKI: 0.03358
L2C PREFETCH  REQUESTED:     611927  ISSUED:     611927  USEFUL:      16402  USELESS:     113468
L2C USEFUL LOAD PREFETCHES:      16402 PREFETCH ISSUED TO LOWER LEVEL:     131795  ACCURACY: 12.4451
L2C TIMELY PREFETCHES:      16402 LATE PREFETCHES: 1858 DROPPED PREFETCHES: 0
L2C PREFETCHES SAME FILL-ORIGIN LEVEL: 68932 DIFFERENT FILL-ORIGIN LEVEL: 0
L2C AVERAGE MISS LATENCY: 35.6367 cycles
L2C RQ	ACCESS:    3727752	FORWARD:          0	MERGED:          0	TO_CACHE:    3727706
L2C WQ	ACCESS:     504987	FORWARD:         46	MERGED:          0	TO_CACHE:     504987
L2C PQ	ACCESS:     820727	FORWARD:          0	MERGED:       5938	TO_CACHE:     814789

L2C Instructions Evicting Data 145389
L2C Translations Evicting Data 1177
L2C Data Evicting Data 145601
L2C Instructions Evicting Instructions 189047
L2C Translations Evicting Instructions 456
L2C Data Evicting Instructions 134473
L2C Instructions Evicting Translations 453
L2C Translations Evicting Translations 46
L2C Data Evicting Translations 1166
L2C Dense regions hint from L2: 0
PSCL5 TOTAL     ACCESS:       2236  HIT:       2236  MISS:          0  HIT %:        100  MISS %:          0   MPKI: 0
PSCL5 LOAD TRANSLATION ACCESS:       2236  HIT:       2236  MISS:          0  HIT %:        100  MISS %:          0   MPKI: 0
PSCL5 PREFETCH  REQUESTED:          0  ISSUED:          0  USEFUL:          0  USELESS:          0
PSCL5 USEFUL LOAD PREFETCHES:          0 PREFETCH ISSUED TO LOWER LEVEL:          0  ACCURACY: -nan
PSCL5 TIMELY PREFETCHES:          0 LATE PREFETCHES: 0 DROPPED PREFETCHES: 0
PSCL5 PREFETCHES SAME FILL-ORIGIN LEVEL: 0 DIFFERENT FILL-ORIGIN LEVEL: 0

PSCL4 TOTAL     ACCESS:       2081  HIT:       2069  MISS:         12  HIT %:    99.4234  MISS %:   0.576646   MPKI: 0.00024
PSCL4 LOAD TRANSLATION ACCESS:       2081  HIT:       2069  MISS:         12  HIT %:    99.4234  MISS %:   0.576646   MPKI: 0.00024
PSCL4 PREFETCH  REQUESTED:          0  ISSUED:          0  USEFUL:          0  USELESS:          0
PSCL4 USEFUL LOAD PREFETCHES:          0 PREFETCH ISSUED TO LOWER LEVEL:          0  ACCURACY: -nan
PSCL4 TIMELY PREFETCHES:          0 LATE PREFETCHES: 0 DROPPED PREFETCHES: 0
PSCL4 PREFETCHES SAME FILL-ORIGIN LEVEL: 0 DIFFERENT FILL-ORIGIN LEVEL: 0

PSCL3 TOTAL     ACCESS:       2120  HIT:       2107  MISS:         13  HIT %:    99.3868  MISS %:   0.613208   MPKI: 0.00026
PSCL3 LOAD TRANSLATION ACCESS:       2120  HIT:       2107  MISS:         13  HIT %:    99.3868  MISS %:   0.613208   MPKI: 0.00026
PSCL3 PREFETCH  REQUESTED:          0  ISSUED:          0  USEFUL:          0  USELESS:          0
PSCL3 USEFUL LOAD PREFETCHES:          0 PREFETCH ISSUED TO LOWER LEVEL:          0  ACCURACY: -nan
PSCL3 TIMELY PREFETCHES:          0 LATE PREFETCHES: 0 DROPPED PREFETCHES: 0
PSCL3 PREFETCHES SAME FILL-ORIGIN LEVEL: 0 DIFFERENT FILL-ORIGIN LEVEL: 0

PSCL2 TOTAL     ACCESS:       2236  HIT:       2101  MISS:        135  HIT %:    93.9624  MISS %:    6.03757   MPKI: 0.0027
PSCL2 LOAD TRANSLATION ACCESS:       2236  HIT:       2101  MISS:        135  HIT %:    93.9624  MISS %:    6.03757   MPKI: 0.0027
PSCL2 PREFETCH  REQUESTED:          0  ISSUED:          0  USEFUL:          0  USELESS:          0
PSCL2 USEFUL LOAD PREFETCHES:          0 PREFETCH ISSUED TO LOWER LEVEL:          0  ACCURACY: -nan
PSCL2 TIMELY PREFETCHES:          0 LATE PREFETCHES: 0 DROPPED PREFETCHES: 0
PSCL2 PREFETCHES SAME FILL-ORIGIN LEVEL: 0 DIFFERENT FILL-ORIGIN LEVEL: 0

LLC TOTAL     ACCESS:     721638  HIT:     689074  MISS:      32564  HIT %:    95.4875  MISS %:    4.51251   MPKI: 0.65128
LLC LOAD      ACCESS:     410442  HIT:     405522  MISS:       4920  HIT %:    98.8013  MISS %:    1.19871   MPKI: 0.0984
LLC RFO       ACCESS:      73908  HIT:      58350  MISS:      15558  HIT %:    78.9495  MISS %:    21.0505   MPKI: 0.31116
LLC PREFETCH  ACCESS:     131794  HIT:     120059  MISS:      11735  HIT %:     91.096  MISS %:    8.90405   MPKI: 0.2347
LLC WRITEBACK ACCESS:     103815  HIT:     103647  MISS:        168  HIT %:    99.8382  MISS %:   0.161826   MPKI: 0.00336
LLC LOAD TRANSLATION ACCESS:       1679  HIT:       1496  MISS:        183  HIT %:    89.1007  MISS %:    10.8993   MPKI: 0.00366
LLC PREFETCH  REQUESTED:          0  ISSUED:          0  USEFUL:        951  USELESS:       6393
LLC USEFUL LOAD PREFETCHES:        951 PREFETCH ISSUED TO LOWER LEVEL:      11735  ACCURACY: 8.10396
LLC TIMELY PREFETCHES:        951 LATE PREFETCHES: 0 DROPPED PREFETCHES: 0
LLC PREFETCHES SAME FILL-ORIGIN LEVEL: 0 DIFFERENT FILL-ORIGIN LEVEL: 0
LLC AVERAGE MISS LATENCY: 129.349 cycles
LLC RQ	ACCESS:     486031	FORWARD:          0	MERGED:          0	TO_CACHE:     486029
LLC WQ	ACCESS:     103815	FORWARD:          3	MERGED:          0	TO_CACHE:     103815
LLC PQ	ACCESS:     131795	FORWARD:          0	MERGED:          0	TO_CACHE:     131794

LLC Dense regions hint to LLC: 0

RAW hits: 522788
Loads Generated: 12617504
Loads sent to L1D: 12094714
Stores Generated: 6899109
Stores sent to L1D: 6899106
Major fault: 0 Minor fault: 2264
Allocated PAGES: 2264

stream: 
stream:times selected: 1053292
stream:pref_filled: 108921
stream:pref_useful: 18723
stream:pref_late: 32421
stream:misses: 7175
stream:misses_by_poll: 0

CS: 
CS:times selected: 143318
CS:pref_filled: 63116
CS:pref_useful: 44786
CS:pref_late: 4328
CS:misses: 9475
CS:misses_by_poll: 12

CPLX: 
CPLX:times selected: 908025
CPLX:pref_filled: 25105
CPLX:pref_useful: 5026
CPLX:pref_late: 2368
CPLX:misses: 88801
CPLX:misses_by_poll: 1

NL_L1: 
NL:times selected: 5905
NL:pref_filled: 522
NL:pref_useful: 76
NL:pref_late: 17
NL:misses: 326
NL:misses_by_poll: 0

total selections: 2110540
total_filled: 168777
total_useful: 57697
total_late: 41254
total_polluted: 13
total_misses_after_warmup: 772310
conflicts: 3234369
Degree Incremented Times: 0
Degree Decremented Times: 129034

L1 IP Table Write Accesses: 5299689
L1 IP Table Read Accesses: 2065320
L1 RST Write Accesses: 890215
L1 RST Read Accesses: 1780430
L1 CSPT Write Accesses: 890215
L1 CSPT Read Accesses: 1656042
L1 RR Filter Tag Write Accesses: 564929
L1 RR Filter Tag Read Accesses: 40581924
L1 IP Table Tag Write Accesses: 8829576
L1 IP Table Tag Read Accesses: 8829576
L1 RST Tag Write Accesses: 0
L1 RST Tag Read Accesses: 7630917
L1 RR Filter Write Accesses: 0
L1 RR Filter Read Accesses: 1485374
test: 147699
L2 IP Table Read Accesses: 1197546
L2 IP Table Write Accesses: 1639818
L2 IP Table Tag Read Accesses: 908118
L2 IP Table Tag Write Accesses: 908118

DRAM Statistics
 CHANNEL 0
 RQ ROW_BUFFER_HIT:      16770  ROW_BUFFER_MISS:      15621
 DBUS_CONGESTED:          5
 WQ ROW_BUFFER_HIT:        636  ROW_BUFFER_MISS:       6002  FULL:          0

 AVG_CONGESTED_CYCLE: 5
 All warmup complete: 2
Channel 0 Bank busy for read cycles: 0
Channel 0 Bank busy for write cycles: 0
Channel 0
Rank 0
0banks busy for read cycles: 121043667
0banks busy for write cycles: 2070
1banks busy for read cycles: 684845
1banks busy for write cycles: 244538
2banks busy for read cycles: 474228
2banks busy for write cycles: 84210
3banks busy for read cycles: 92290
3banks busy for write cycles: 36884
4banks busy for read cycles: 75436
4banks busy for write cycles: 19965
5banks busy for read cycles: 36233
5banks busy for write cycles: 17613
6banks busy for read cycles: 31244
6banks busy for write cycles: 18908
7banks busy for read cycles: 25725
7banks busy for write cycles: 16605
8banks busy for read cycles: 53182
8banks busy for write cycles: 33967

CPU 0 Branch Prediction Accuracy: 91.6418% MPKI: 15.2922 Average ROB Occupancy at Mispredict: 17.3375
Branch types
NOT_BRANCH: 40851784 81.7036%
BRANCH_DIRECT_JUMP: 522633 1.04527%
BRANCH_INDIRECT: 204723 0.409446%
BRANCH_CONDITIONAL: 6214819 12.4296%
BRANCH_DIRECT_CALL: 929734 1.85947%
BRANCH_INDIRECT_CALL: 173167 0.346334%
BRANCH_RETURN: 1102880 2.20576%
BRANCH_OTHER: 0 0%

@sumon_overall_L1D     57697     39699    111086    168777   1129615   1129615
@Sumon_Early_by_class_L1D     14468     38740      3741         7
@Sumon_Late_by_class_L1D     31609      4113      2036         7

@Sumon_Early_by_cycle_L1D     43997      3781      1716       972       356      1811       880      1387      1034      1370       359        34
@Sumon_Late_by_cycle_L1D     38819       861        18         1         0         0         0         0         0         0         0         0
@Sumon_Early_stream_L1D      6296      1660       985       831       243       871       624       781       809      1016       326        26
@Sumon_Early_CS_L1D     35316      1847       576        49        22       613        10       268         6        33         0         0
@Sumon_Early_CPLX_L1D      2100       169       126        68        81       319       201       262       179       197        31         8
@Sumon_Late_stream_L1D     31255       354         0         0         0         0         0         0         0         0         0         0
@Sumon_Late_CS_L1D      3593       501        18         1         0         0         0         0         0         0         0         0
@Sumon_Late_CPLX_L1D      2033         3         0         0         0         0         0         0         0         0         0         0
@sumon_overall_L2C     16402      1858    113468    129937    611927    611927
@Sumon_Early_by_class_L2C      1388       150       309         0
@Sumon_Late_by_class_L2C         0         0         0         0

@Sumon_Early_by_cycle_L2C      3271      1519      1152      1001       592      2082      1723       603       303       717       457      2982
@Sumon_Late_by_cycle_L2C      1541       317         0         0         0         0         0         0         0         0         0         0
@Sumon_Early_stream_L2C         0         0         0         0         0         0         3        14         3        55       139      1174
@Sumon_Early_CS_L2C         1         0         0         0         0         0         0         0         0         1         1       147
@Sumon_Early_CPLX_L2C         0         0         0         0         0         0         0         0         4        19        49       237
@Sumon_Late_stream_L2C         0         0         0         0         0         0         0         0         0         0         0         0
@Sumon_Late_CS_L2C         0         0         0         0         0         0         0         0         0         0         0         0
@Sumon_Late_CPLX_L2C         0         0         0         0         0         0         0         0         0         0         0         0
DRAM PAGES: 1048576
Allocated PAGES: 2264
