
*** ChampSim Multicore Out-of-Order Simulator ***

Warmup Instructions: 10000000
Simulation Instructions: 50000000
Number of CPUs: 1
LLC sets: 2048
LLC ways: 16
Off-chip DRAM Size: 4096 MB Channels: 1 Width: 64-bit Data Rate: 6400 MT/s
CPU 0 runs traces/clientserver/server_001.champsimtrace.xz
.xz
CPU 0 Bimodal branch predictor
BTB has LRU replacement policy
ITLB has LRU replacement policy
DTLB has LRU replacement policy
STLB has LRU replacement policy
L1I has LRU replacement policy
IP Table Entries: 256
Initialize SRRIP state for L1D
IP_Table L2 entries: 256
Initialize SRRIP state for L2C
LLC has LRU replacement policy
Heartbeat CPU 0 instructions: 10000003 cycles: 2756051 heartbeat IPC: 3.62838 cumulative IPC: 3.62838 (Simulation time: 0 hr 7 min 41 sec) 

Warmup complete CPU 0 instructions: 10000003 cycles: 2756051 (Simulation time: 0 hr 7 min 41 sec) 

Heartbeat CPU 0 instructions: 20000003 cycles: 19451922 heartbeat IPC: 0.598951 cumulative IPC: 0.598951 (Simulation time: 0 hr 16 min 22 sec) 
Heartbeat CPU 0 instructions: 30000000 cycles: 35950097 heartbeat IPC: 0.606127 cumulative IPC: 0.602518 (Simulation time: 0 hr 24 min 45 sec) 
Heartbeat CPU 0 instructions: 40000002 cycles: 53030281 heartbeat IPC: 0.585474 cumulative IPC: 0.596727 (Simulation time: 0 hr 33 min 29 sec) 
Heartbeat CPU 0 instructions: 50000002 cycles: 69361864 heartbeat IPC: 0.612311 cumulative IPC: 0.600548 (Simulation time: 0 hr 42 min 5 sec) 
Heartbeat CPU 0 instructions: 60000002 cycles: 86220110 heartbeat IPC: 0.593182 cumulative IPC: 0.59906 (Simulation time: 0 hr 49 min 45 sec) 
Finished CPU 0 instructions: 50000003 cycles: 83464060 cumulative IPC: 0.59906 (Simulation time: 0 hr 49 min 45 sec) 

ChampSim completed all CPUs

Region of Interest Statistics

CPU 0 cumulative IPC: 0.59906 instructions: 50000003 cycles: 83464060
ITLB TOTAL     ACCESS:    7433887  HIT:    7334351  MISS:      99536  HIT %:    98.6611  MISS %:    1.33895   MPKI: 1.99072
ITLB LOAD TRANSLATION ACCESS:    7433887  HIT:    7334351  MISS:      99536  HIT %:    98.6611  MISS %:    1.33895   MPKI: 1.99072
ITLB PREFETCH  REQUESTED:          0  ISSUED:          0  USEFUL:          0  USELESS:          0
ITLB USEFUL LOAD PREFETCHES:          0 PREFETCH ISSUED TO LOWER LEVEL:          0  ACCURACY: -nan
ITLB TIMELY PREFETCHES:          0 LATE PREFETCHES: 0 DROPPED PREFETCHES: 0
ITLB PREFETCHES SAME FILL-ORIGIN LEVEL: 0 DIFFERENT FILL-ORIGIN LEVEL: 0
ITLB AVERAGE MISS LATENCY: 15.3985 cycles
ITLB RQ	ACCESS:    9204646	FORWARD:          0	MERGED:    1739903	TO_CACHE:    7464743

DTLB TOTAL     ACCESS:   10244925  HIT:    9938970  MISS:     305955  HIT %:    97.0136  MISS %:    2.98641   MPKI: 6.1191
DTLB LOAD TRANSLATION ACCESS:   10244925  HIT:    9938970  MISS:     305955  HIT %:    97.0136  MISS %:    2.98641   MPKI: 6.1191
DTLB PREFETCH  REQUESTED:          0  ISSUED:          0  USEFUL:          0  USELESS:          0
DTLB USEFUL LOAD PREFETCHES:          0 PREFETCH ISSUED TO LOWER LEVEL:          0  ACCURACY: -nan
DTLB TIMELY PREFETCHES:          0 LATE PREFETCHES: 0 DROPPED PREFETCHES: 0
DTLB PREFETCHES SAME FILL-ORIGIN LEVEL: 0 DIFFERENT FILL-ORIGIN LEVEL: 0
DTLB AVERAGE MISS LATENCY: 21.929 cycles
DTLB RQ	ACCESS:   12477468	FORWARD:          0	MERGED:    2218367	TO_CACHE:   10259101

STLB TOTAL     ACCESS:     750670  HIT:     718164  MISS:      32506  HIT %:    95.6697  MISS %:    4.33026   MPKI: 0.65012
STLB LOAD TRANSLATION ACCESS:     405491  HIT:     372985  MISS:      32506  HIT %:    91.9835  MISS %:    8.01645   MPKI: 0.65012
STLB TRANSLATION FROM L1D PREFETCHER ACCESS:     345179  HIT:     345179  MISS:          0  HIT %:        100  MISS %:          0   MPKI: 0
STLB PREFETCH  REQUESTED:          0  ISSUED:          0  USEFUL:          0  USELESS:          0
STLB USEFUL LOAD PREFETCHES:          0 PREFETCH ISSUED TO LOWER LEVEL:          0  ACCURACY: -nan
STLB TIMELY PREFETCHES:          0 LATE PREFETCHES: 0 DROPPED PREFETCHES: 0
STLB PREFETCHES SAME FILL-ORIGIN LEVEL: 0 DIFFERENT FILL-ORIGIN LEVEL: 0
STLB AVERAGE MISS LATENCY: 140.966 cycles
STLB RQ	ACCESS:     862491	FORWARD:          0	MERGED:     111820	TO_CACHE:     750671

STLB Hit, L1D data hit: 0
STLB Hit, L2C data hit: 0
STLB Hit, LLC data hit: 0
STLB Hit, LLC data miss: 0
STLB STLB hints to L2: 0
L1D TOTAL     ACCESS:   12588133  HIT:   12102081  MISS:     486052  HIT %:    96.1388  MISS %:    3.86119   MPKI: 9.72104
L1D LOAD      ACCESS:    7009961  HIT:    6779034  MISS:     230927  HIT %:    96.7057  MISS %:    3.29427   MPKI: 4.61854
L1D RFO       ACCESS:    5138798  HIT:    5036689  MISS:     102109  HIT %:     98.013  MISS %:    1.98702   MPKI: 2.04218
L1D PREFETCH  ACCESS:     439374  HIT:     286358  MISS:     153016  HIT %:    65.1741  MISS %:    34.8259   MPKI: 3.06032
L1D PREFETCH  REQUESTED:     914117  ISSUED:     914114  USEFUL:     101707  USELESS:      51279
L1D USEFUL LOAD PREFETCHES:     101707 PREFETCH ISSUED TO LOWER LEVEL:     161167  ACCURACY: 63.1066
L1D TIMELY PREFETCHES:     101707 LATE PREFETCHES: 7798 DROPPED PREFETCHES: 0
L1D PREFETCHES SAME FILL-ORIGIN LEVEL: 161167 DIFFERENT FILL-ORIGIN LEVEL: 0
L1D AVERAGE MISS LATENCY: 709575 cycles
L1D RQ	ACCESS:   10696118	FORWARD:          0	MERGED:    3591154	TO_CACHE:    7034839
L1D WQ	ACCESS:    5532902	FORWARD:      70241	MERGED:      90273	TO_CACHE:    5442629
L1D PQ	ACCESS:     457115	FORWARD:          0	MERGED:          0	TO_CACHE:     456999

L1D UNIQUE REGIONS ACCESSED: 0
L1D REGIONS CONFLICTS: 0
L1D Cross Page Prefetch Requests: 0
L1D Same Page Prefetch Requests: 550698
L1D ROI Sum of L1D PQ occupancy: 6031379
L1D PREFETCHES PUSHED FROM L2C: 0
L1I TOTAL     ACCESS:    8993314  HIT:    8484906  MISS:     508408  HIT %:    94.3468  MISS %:    5.65318   MPKI: 10.1682
L1I LOAD      ACCESS:    8993314  HIT:    8484906  MISS:     508408  HIT %:    94.3468  MISS %:    5.65318   MPKI: 10.1682
L1I PREFETCH  REQUESTED:          0  ISSUED:          0  USEFUL:          0  USELESS:          0
L1I USEFUL LOAD PREFETCHES:          0 PREFETCH ISSUED TO LOWER LEVEL:          0  ACCURACY: -nan
L1I TIMELY PREFETCHES:          0 LATE PREFETCHES: 0 DROPPED PREFETCHES: 0
L1I PREFETCHES SAME FILL-ORIGIN LEVEL: 0 DIFFERENT FILL-ORIGIN LEVEL: 0
L1I AVERAGE MISS LATENCY: 36.9166 cycles
L1I RQ	ACCESS:   13336138	FORWARD:          0	MERGED:    4131492	TO_CACHE:    9204646

BTB TOTAL     ACCESS:    4006890  HIT:    3708548  MISS:     298342  HIT %:    92.5543  MISS %:    7.44572   MPKI: 5.96684
BTB BRANCH_DIRECT_JUMP	ACCESS:     351730  HIT:     340341  MISS:      11389
BTB BRANCH_INDIRECT	ACCESS:     151140  HIT:      90845  MISS:      60295
BTB BRANCH_CONDITIONAL	ACCESS:    2268956  HIT:    2221473  MISS:      47483
BTB BRANCH_DIRECT_CALL	ACCESS:     577844  HIT:     558069  MISS:      19775
BTB BRANCH_INDIRECT_CALL	ACCESS:      27215  HIT:      24769  MISS:       2446
BTB BRANCH_RETURN	ACCESS:     630005  HIT:     473051  MISS:     156954
BTB BRANCH_OTHER ACCESS:          0  HIT:          0  MISS:          0

L2C TOTAL     ACCESS:    1518437  HIT:     961914  MISS:     556523  HIT %:     63.349  MISS %:     36.651   MPKI: 11.1305
L2C LOAD      ACCESS:     731535  HIT:     460124  MISS:     271411  HIT %:    62.8984  MISS %:    37.1016   MPKI: 5.42822
L2C DATA LOAD MPKI: 2.36212
L2C INSTRUCTION LOAD MPKI: 3.0661
L2C RFO       ACCESS:     101755  HIT:      20716  MISS:      81039  HIT %:    20.3587  MISS %:    79.6413   MPKI: 1.62078
L2C PREFETCH  ACCESS:     430279  HIT:     255227  MISS:     175052  HIT %:    59.3166  MISS %:    40.6834   MPKI: 3.50104
L2C DATA PREFETCH MPKI: 3.50104
L2C INSTRUCTION PREFETCH MPKI: 0
L2C WRITEBACK ACCESS:     213661  HIT:     207622  MISS:       6039  HIT %:    97.1736  MISS %:    2.82644   MPKI: 0.12078
L2C LOAD TRANSLATION ACCESS:      41207  HIT:      18225  MISS:      22982  HIT %:    44.2279  MISS %:    55.7721   MPKI: 0.45964
L2C PREFETCH  REQUESTED:     348083  ISSUED:     348083  USEFUL:      44973  USELESS:     130653
L2C USEFUL LOAD PREFETCHES:      44973 PREFETCH ISSUED TO LOWER LEVEL:     179352  ACCURACY: 25.0753
L2C TIMELY PREFETCHES:      44973 LATE PREFETCHES: 4300 DROPPED PREFETCHES: 0
L2C PREFETCHES SAME FILL-ORIGIN LEVEL: 114062 DIFFERENT FILL-ORIGIN LEVEL: 0
L2C AVERAGE MISS LATENCY: 121.679 cycles
L2C RQ	ACCESS:     874501	FORWARD:          0	MERGED:          0	TO_CACHE:     874498
L2C WQ	ACCESS:     213661	FORWARD:          3	MERGED:          0	TO_CACHE:     213661
L2C PQ	ACCESS:     509250	FORWARD:          0	MERGED:      67320	TO_CACHE:     441930

L2C Instructions Evicting Data 103498
L2C Translations Evicting Data 15628
L2C Data Evicting Data 258875
L2C Instructions Evicting Instructions 43907
L2C Translations Evicting Instructions 6459
L2C Data Evicting Instructions 99642
L2C Instructions Evicting Translations 5900
L2C Translations Evicting Translations 895
L2C Data Evicting Translations 15680
L2C Dense regions hint from L2: 0
PSCL5 TOTAL     ACCESS:      32507  HIT:      32507  MISS:          0  HIT %:        100  MISS %:          0   MPKI: 0
PSCL5 LOAD TRANSLATION ACCESS:      32507  HIT:      32507  MISS:          0  HIT %:        100  MISS %:          0   MPKI: 0
PSCL5 PREFETCH  REQUESTED:          0  ISSUED:          0  USEFUL:          0  USELESS:          0
PSCL5 USEFUL LOAD PREFETCHES:          0 PREFETCH ISSUED TO LOWER LEVEL:          0  ACCURACY: -nan
PSCL5 TIMELY PREFETCHES:          0 LATE PREFETCHES: 0 DROPPED PREFETCHES: 0
PSCL5 PREFETCHES SAME FILL-ORIGIN LEVEL: 0 DIFFERENT FILL-ORIGIN LEVEL: 0

PSCL4 TOTAL     ACCESS:      31855  HIT:      31771  MISS:         84  HIT %:    99.7363  MISS %:   0.263695   MPKI: 0.00168
PSCL4 LOAD TRANSLATION ACCESS:      31855  HIT:      31771  MISS:         84  HIT %:    99.7363  MISS %:   0.263695   MPKI: 0.00168
PSCL4 PREFETCH  REQUESTED:          0  ISSUED:          0  USEFUL:          0  USELESS:          0
PSCL4 USEFUL LOAD PREFETCHES:          0 PREFETCH ISSUED TO LOWER LEVEL:          0  ACCURACY: -nan
PSCL4 TIMELY PREFETCHES:          0 LATE PREFETCHES: 0 DROPPED PREFETCHES: 0
PSCL4 PREFETCHES SAME FILL-ORIGIN LEVEL: 0 DIFFERENT FILL-ORIGIN LEVEL: 0

PSCL3 TOTAL     ACCESS:      32397  HIT:      32313  MISS:         84  HIT %:    99.7407  MISS %:   0.259283   MPKI: 0.00168
PSCL3 LOAD TRANSLATION ACCESS:      32397  HIT:      32313  MISS:         84  HIT %:    99.7407  MISS %:   0.259283   MPKI: 0.00168
PSCL3 PREFETCH  REQUESTED:          0  ISSUED:          0  USEFUL:          0  USELESS:          0
PSCL3 USEFUL LOAD PREFETCHES:          0 PREFETCH ISSUED TO LOWER LEVEL:          0  ACCURACY: -nan
PSCL3 TIMELY PREFETCHES:          0 LATE PREFETCHES: 0 DROPPED PREFETCHES: 0
PSCL3 PREFETCHES SAME FILL-ORIGIN LEVEL: 0 DIFFERENT FILL-ORIGIN LEVEL: 0

PSCL2 TOTAL     ACCESS:      32507  HIT:      23916  MISS:       8591  HIT %:    73.5718  MISS %:    26.4282   MPKI: 0.17182
PSCL2 LOAD TRANSLATION ACCESS:      32507  HIT:      23916  MISS:       8591  HIT %:    73.5718  MISS %:    26.4282   MPKI: 0.17182
PSCL2 PREFETCH  REQUESTED:          0  ISSUED:          0  USEFUL:          0  USELESS:          0
PSCL2 USEFUL LOAD PREFETCHES:          0 PREFETCH ISSUED TO LOWER LEVEL:          0  ACCURACY: -nan
PSCL2 TIMELY PREFETCHES:          0 LATE PREFETCHES: 0 DROPPED PREFETCHES: 0
PSCL2 PREFETCHES SAME FILL-ORIGIN LEVEL: 0 DIFFERENT FILL-ORIGIN LEVEL: 0

LLC TOTAL     ACCESS:     726974  HIT:     420539  MISS:     306435  HIT %:    57.8479  MISS %:    42.1521   MPKI: 6.1287
LLC LOAD      ACCESS:     267194  HIT:     162735  MISS:     104459  HIT %:    60.9052  MISS %:    39.0948   MPKI: 2.08918
LLC RFO       ACCESS:      80956  HIT:       5667  MISS:      75289  HIT %:     7.0001  MISS %:    92.9999   MPKI: 1.50578
LLC PREFETCH  ACCESS:     179352  HIT:      64162  MISS:     115190  HIT %:    35.7743  MISS %:    64.2257   MPKI: 2.3038
LLC WRITEBACK ACCESS:     176490  HIT:     175980  MISS:        510  HIT %:     99.711  MISS %:   0.288968   MPKI: 0.0102
LLC LOAD TRANSLATION ACCESS:      22982  HIT:      11995  MISS:      10987  HIT %:     52.193  MISS %:     47.807   MPKI: 0.21974
LLC PREFETCH  REQUESTED:          0  ISSUED:          0  USEFUL:       8849  USELESS:     108634
LLC USEFUL LOAD PREFETCHES:       8849 PREFETCH ISSUED TO LOWER LEVEL:     115190  ACCURACY: 7.68209
LLC TIMELY PREFETCHES:       8849 LATE PREFETCHES: 0 DROPPED PREFETCHES: 0
LLC PREFETCHES SAME FILL-ORIGIN LEVEL: 0 DIFFERENT FILL-ORIGIN LEVEL: 0
LLC AVERAGE MISS LATENCY: 167.02 cycles
LLC RQ	ACCESS:     371133	FORWARD:          0	MERGED:          0	TO_CACHE:     371133
LLC WQ	ACCESS:     176490	FORWARD:          0	MERGED:          0	TO_CACHE:     176490
LLC PQ	ACCESS:     179352	FORWARD:          0	MERGED:          0	TO_CACHE:     179352

LLC Dense regions hint to LLC: 0

RAW hits: 1066450
Loads Generated: 11762562
Loads sent to L1D: 10696118
Stores Generated: 5532905
Stores sent to L1D: 5532902
Major fault: 0 Minor fault: 12198
Allocated PAGES: 12198

stream: 
stream:times selected: 810902
stream:pref_filled: 56331
stream:pref_useful: 28358
stream:pref_late: 4474
stream:misses: 5100
stream:misses_by_poll: 0

CS: 
CS:times selected: 180343
CS:pref_filled: 82454
CS:pref_useful: 73507
CS:pref_late: 1713
CS:misses: 6834
CS:misses_by_poll: 76

CPLX: 
CPLX:times selected: 629146
CPLX:pref_filled: 40385
CPLX:pref_useful: 17614
CPLX:pref_late: 1062
CPLX:misses: 25399
CPLX:misses_by_poll: 20

NL_L1: 
NL:times selected: 4276
NL:pref_filled: 519
NL:pref_useful: 212
NL:pref_late: 22
NL:misses: 212
NL:misses_by_poll: 0

total selections: 1624667
total_filled: 153016
total_useful: 101707
total_late: 8181
total_polluted: 96
total_misses_after_warmup: 255804
conflicts: 2049181
Degree Incremented Times: 26675
Degree Decremented Times: 532

L1 IP Table Write Accesses: 4372842
L1 IP Table Read Accesses: 2323661
L1 RST Write Accesses: 673833
L1 RST Read Accesses: 1347666
L1 CSPT Write Accesses: 673833
L1 CSPT Read Accesses: 1192873
L1 RR Filter Tag Write Accesses: 457118
L1 RR Filter Tag Read Accesses: 36091333
L1 IP Table Tag Write Accesses: 7034838
L1 IP Table Tag Read Accesses: 7034838
L1 RST Tag Write Accesses: 0
L1 RST Tag Read Accesses: 5700292
L1 RR Filter Write Accesses: 0
L1 RR Filter Read Accesses: 1382027
test: 169574
L2 IP Table Read Accesses: 598808
L2 IP Table Write Accesses: 620760
L2 IP Table Tag Read Accesses: 373253
L2 IP Table Tag Write Accesses: 373253

DRAM Statistics
 CHANNEL 0
 RQ ROW_BUFFER_HIT:      88760  ROW_BUFFER_MISS:     217163
 DBUS_CONGESTED:        209
 WQ ROW_BUFFER_HIT:      37277  ROW_BUFFER_MISS:     124727  FULL:          0

 AVG_CONGESTED_CYCLE: 4
 All warmup complete: 2
Channel 0 Bank busy for read cycles: 0
Channel 0 Bank busy for write cycles: 0
Channel 0
Rank 0
0banks busy for read cycles: 47139797
0banks busy for write cycles: 50114
1banks busy for read cycles: 14682811
1banks busy for write cycles: 6600891
2banks busy for read cycles: 5102741
2banks busy for write cycles: 2890338
3banks busy for read cycles: 1303085
3banks busy for write cycles: 1411388
4banks busy for read cycles: 498698
4banks busy for write cycles: 791132
5banks busy for read cycles: 248047
5banks busy for write cycles: 516174
6banks busy for read cycles: 150871
6banks busy for write cycles: 352936
7banks busy for read cycles: 96676
7banks busy for write cycles: 317679
8banks busy for read cycles: 439907
8banks busy for write cycles: 870776

CPU 0 Branch Prediction Accuracy: 95.5458% MPKI: 7.5957 Average ROB Occupancy at Mispredict: 41.8196
Branch types
NOT_BRANCH: 41473286 82.9466%
BRANCH_DIRECT_JUMP: 351730 0.70346%
BRANCH_INDIRECT: 151140 0.30228%
BRANCH_CONDITIONAL: 6788476 13.577%
BRANCH_DIRECT_CALL: 577844 1.15569%
BRANCH_INDIRECT_CALL: 27215 0.05443%
BRANCH_RETURN: 630005 1.26001%
BRANCH_OTHER: 0 0%

@sumon_overall_L1D    101707      7798     51279    153016    914114    914117
@Sumon_Early_by_class_L1D     22452     63316     14394        22
@Sumon_Late_by_class_L1D      4228      1698       963        22

@Sumon_Early_by_cycle_L1D     41763      7932      9187      7290      4663     18380      5172      2387      2684      1555       472       222
@Sumon_Late_by_cycle_L1D      5002      2764        32         0         0         0         0         0         0         0         0         0
@Sumon_Early_stream_L1D      5111      2936      4354      3717      1480      1898      1115       492       403       559       255       132
@Sumon_Early_CS_L1D     35433      4114      2120      1522      1748     13402      3096       746       908       212        11         4
@Sumon_Early_CPLX_L1D       998       717      2289      1808      1358      2933       821      1080      1344       761       204        81
@Sumon_Late_stream_L1D      1939      2264        25         0         0         0         0         0         0         0         0         0
@Sumon_Late_CS_L1D      1651        45         2         0         0         0         0         0         0         0         0         0
@Sumon_Late_CPLX_L1D       626       333         4         0         0         0         0         0         0         0         0         0
@sumon_overall_L2C     44973      4300    130653    175052    348083    348083
@Sumon_Early_by_class_L2C      3482      9564      1920         0
@Sumon_Late_by_class_L2C         0       129         0         0

@Sumon_Early_by_cycle_L2C      4665      4308      4523      3359      1845      5572      4850      1738      3541      1727       997      7848
@Sumon_Late_by_cycle_L2C      2342      1915        43         0         0         0         0         0         0         0         0         0
@Sumon_Early_stream_L2C         0         1         7         9         4         2         2         9        16        66       349      3017
@Sumon_Early_CS_L2C        50       252       222       432       479      1715      1497       463      2415       211        87      1741
@Sumon_Early_CPLX_L2C         0         0         4         4         3        22         4         1        17        74       107      1684
@Sumon_Late_stream_L2C         0         0         0         0         0         0         0         0         0         0         0         0
@Sumon_Late_CS_L2C       122         7         0         0         0         0         0         0         0         0         0         0
@Sumon_Late_CPLX_L2C         0         0         0         0         0         0         0         0         0         0         0         0
DRAM PAGES: 1048576
Allocated PAGES: 12198
