
*** ChampSim Multicore Out-of-Order Simulator ***

Warmup Instructions: 10000000
Simulation Instructions: 50000000
Number of CPUs: 1
LLC sets: 2048
LLC ways: 16
Off-chip DRAM Size: 4096 MB Channels: 1 Width: 64-bit Data Rate: 6400 MT/s
CPU 0 runs traces/clientserver/server_020.champsimtrace.xz
.xz
CPU 0 Bimodal branch predictor
BTB has LRU replacement policy
ITLB has LRU replacement policy
DTLB has LRU replacement policy
STLB has LRU replacement policy
L1I has LRU replacement policy
IP Table Entries: 256
Initialize SRRIP state for L1D
IP_Table L2 entries: 256
Initialize SRRIP state for L2C
LLC has LRU replacement policy
Heartbeat CPU 0 instructions: 10000003 cycles: 3152554 heartbeat IPC: 3.17203 cumulative IPC: 3.17203 (Simulation time: 0 hr 9 min 23 sec) 

Warmup complete CPU 0 instructions: 10000003 cycles: 3152554 (Simulation time: 0 hr 9 min 23 sec) 

Heartbeat CPU 0 instructions: 20000001 cycles: 26899633 heartbeat IPC: 0.421104 cumulative IPC: 0.421104 (Simulation time: 0 hr 21 min 59 sec) 
Heartbeat CPU 0 instructions: 30000000 cycles: 50680164 heartbeat IPC: 0.420512 cumulative IPC: 0.420808 (Simulation time: 0 hr 34 min 40 sec) 
Heartbeat CPU 0 instructions: 40000001 cycles: 74449119 heartbeat IPC: 0.420717 cumulative IPC: 0.420778 (Simulation time: 0 hr 47 min 21 sec) 
Heartbeat CPU 0 instructions: 50000000 cycles: 98242504 heartbeat IPC: 0.420285 cumulative IPC: 0.420654 (Simulation time: 0 hr 52 min 14 sec) 
Heartbeat CPU 0 instructions: 60000000 cycles: 121968652 heartbeat IPC: 0.421476 cumulative IPC: 0.420818 (Simulation time: 0 hr 54 min 37 sec) 
Finished CPU 0 instructions: 50000003 cycles: 118816105 cumulative IPC: 0.420818 (Simulation time: 0 hr 54 min 37 sec) 

ChampSim completed all CPUs

Region of Interest Statistics

CPU 0 cumulative IPC: 0.420818 instructions: 50000003 cycles: 118816105
ITLB TOTAL     ACCESS:    8936873  HIT:    8565494  MISS:     371379  HIT %:    95.8444  MISS %:    4.15558   MPKI: 7.42758
ITLB LOAD TRANSLATION ACCESS:    8936873  HIT:    8565494  MISS:     371379  HIT %:    95.8444  MISS %:    4.15558   MPKI: 7.42758
ITLB PREFETCH  REQUESTED:          0  ISSUED:          0  USEFUL:          0  USELESS:          0
ITLB USEFUL LOAD PREFETCHES:          0 PREFETCH ISSUED TO LOWER LEVEL:          0  ACCURACY: -nan
ITLB TIMELY PREFETCHES:          0 LATE PREFETCHES: 0 DROPPED PREFETCHES: 0
ITLB PREFETCHES SAME FILL-ORIGIN LEVEL: 0 DIFFERENT FILL-ORIGIN LEVEL: 0
ITLB AVERAGE MISS LATENCY: 9.48145 cycles
ITLB RQ	ACCESS:   10519924	FORWARD:          0	MERGED:    1463750	TO_CACHE:    9056174

DTLB TOTAL     ACCESS:   11643977  HIT:   11221195  MISS:     422782  HIT %:    96.3691  MISS %:    3.63091   MPKI: 8.45564
DTLB LOAD TRANSLATION ACCESS:   11643977  HIT:   11221195  MISS:     422782  HIT %:    96.3691  MISS %:    3.63091   MPKI: 8.45564
DTLB PREFETCH  REQUESTED:          0  ISSUED:          0  USEFUL:          0  USELESS:          0
DTLB USEFUL LOAD PREFETCHES:          0 PREFETCH ISSUED TO LOWER LEVEL:          0  ACCURACY: -nan
DTLB TIMELY PREFETCHES:          0 LATE PREFETCHES: 0 DROPPED PREFETCHES: 0
DTLB PREFETCHES SAME FILL-ORIGIN LEVEL: 0 DIFFERENT FILL-ORIGIN LEVEL: 0
DTLB AVERAGE MISS LATENCY: 19.0943 cycles
DTLB RQ	ACCESS:   16629997	FORWARD:          0	MERGED:    4913815	TO_CACHE:   11716182

STLB TOTAL     ACCESS:    1467026  HIT:    1434211  MISS:      32815  HIT %:    97.7632  MISS %:    2.23684   MPKI: 0.6563
STLB LOAD TRANSLATION ACCESS:     794161  HIT:     761346  MISS:      32815  HIT %:     95.868  MISS %:    4.13203   MPKI: 0.6563
STLB TRANSLATION FROM L1D PREFETCHER ACCESS:     672865  HIT:     672865  MISS:          0  HIT %:        100  MISS %:          0   MPKI: 0
STLB PREFETCH  REQUESTED:          0  ISSUED:          0  USEFUL:          0  USELESS:          0
STLB USEFUL LOAD PREFETCHES:          0 PREFETCH ISSUED TO LOWER LEVEL:          0  ACCURACY: -nan
STLB TIMELY PREFETCHES:          0 LATE PREFETCHES: 0 DROPPED PREFETCHES: 0
STLB PREFETCHES SAME FILL-ORIGIN LEVEL: 0 DIFFERENT FILL-ORIGIN LEVEL: 0
STLB AVERAGE MISS LATENCY: 135.329 cycles
STLB RQ	ACCESS:    2094386	FORWARD:          0	MERGED:     627360	TO_CACHE:    1467026

STLB Hit, L1D data hit: 0
STLB Hit, L2C data hit: 0
STLB Hit, LLC data hit: 0
STLB Hit, LLC data miss: 0
STLB STLB hints to L2: 0
L1D TOTAL     ACCESS:   15189050  HIT:   12915599  MISS:    2273451  HIT %:    85.0323  MISS %:    14.9677   MPKI: 45.469
L1D LOAD      ACCESS:    7961134  HIT:    7382243  MISS:     578891  HIT %:    92.7285  MISS %:    7.27146   MPKI: 11.5778
L1D RFO       ACCESS:    5965836  HIT:    5006975  MISS:     958861  HIT %:    83.9275  MISS %:    16.0725   MPKI: 19.1772
L1D PREFETCH  ACCESS:    1262080  HIT:     526381  MISS:     735699  HIT %:    41.7074  MISS %:    58.2926   MPKI: 14.714
L1D PREFETCH  REQUESTED:    2659497  ISSUED:    2600562  USEFUL:     322226  USELESS:     413463
L1D USEFUL LOAD PREFETCHES:     322226 PREFETCH ISSUED TO LOWER LEVEL:     757966  ACCURACY: 42.5119
L1D TIMELY PREFETCHES:     322226 LATE PREFETCHES: 22227 DROPPED PREFETCHES: 0
L1D PREFETCHES SAME FILL-ORIGIN LEVEL: 757966 DIFFERENT FILL-ORIGIN LEVEL: 0
L1D AVERAGE MISS LATENCY: 611573 cycles
L1D RQ	ACCESS:   11488875	FORWARD:          0	MERGED:    3362443	TO_CACHE:    8004005
L1D WQ	ACCESS:    8689751	FORWARD:     122508	MERGED:      63759	TO_CACHE:    8625992
L1D PQ	ACCESS:    1300337	FORWARD:          0	MERGED:         31	TO_CACHE:    1300225

L1D UNIQUE REGIONS ACCESSED: 0
L1D REGIONS CONFLICTS: 0
L1D Cross Page Prefetch Requests: 0
L1D Same Page Prefetch Requests: 1557777
L1D ROI Sum of L1D PQ occupancy: 23353447
L1D PREFETCHES PUSHED FROM L2C: 0
L1I TOTAL     ACCESS:    9801443  HIT:    7414231  MISS:    2387212  HIT %:    75.6443  MISS %:    24.3557   MPKI: 47.7442
L1I LOAD      ACCESS:    9801443  HIT:    7414231  MISS:    2387212  HIT %:    75.6443  MISS %:    24.3557   MPKI: 47.7442
L1I PREFETCH  REQUESTED:          0  ISSUED:          0  USEFUL:          0  USELESS:          0
L1I USEFUL LOAD PREFETCHES:          0 PREFETCH ISSUED TO LOWER LEVEL:          0  ACCURACY: -nan
L1I TIMELY PREFETCHES:          0 LATE PREFETCHES: 0 DROPPED PREFETCHES: 0
L1I PREFETCHES SAME FILL-ORIGIN LEVEL: 0 DIFFERENT FILL-ORIGIN LEVEL: 0
L1I AVERAGE MISS LATENCY: 17.4934 cycles
L1I RQ	ACCESS:   14482594	FORWARD:          0	MERGED:    3962670	TO_CACHE:   10519924

BTB TOTAL     ACCESS:    5369972  HIT:    5103286  MISS:     266686  HIT %:    95.0338  MISS %:    4.96625   MPKI: 5.33372
BTB BRANCH_DIRECT_JUMP	ACCESS:     456401  HIT:     454412  MISS:       1989
BTB BRANCH_INDIRECT	ACCESS:      50013  HIT:      49833  MISS:        180
BTB BRANCH_CONDITIONAL	ACCESS:    3043084  HIT:    3036854  MISS:       6230
BTB BRANCH_DIRECT_CALL	ACCESS:     742782  HIT:     738717  MISS:       4065
BTB BRANCH_INDIRECT_CALL	ACCESS:     167454  HIT:     138660  MISS:      28794
BTB BRANCH_RETURN	ACCESS:     910238  HIT:     684810  MISS:     225428
BTB BRANCH_OTHER ACCESS:          0  HIT:          0  MISS:          0

L2C TOTAL     ACCESS:    6189045  HIT:    4101631  MISS:    2087414  HIT %:    66.2724  MISS %:    33.7276   MPKI: 41.7483
L2C LOAD      ACCESS:    2943851  HIT:    2484161  MISS:     459690  HIT %:    84.3847  MISS %:    15.6153   MPKI: 9.1938
L2C DATA LOAD MPKI: 5.9128
L2C INSTRUCTION LOAD MPKI: 3.281
L2C RFO       ACCESS:     958812  HIT:      37932  MISS:     920880  HIT %:    3.95615  MISS %:    96.0439   MPKI: 18.4176
L2C PREFETCH  ACCESS:    1106453  HIT:     454830  MISS:     651623  HIT %:     41.107  MISS %:     58.893   MPKI: 13.0325
L2C DATA PREFETCH MPKI: 13.0325
L2C INSTRUCTION PREFETCH MPKI: 0
L2C WRITEBACK ACCESS:    1143718  HIT:    1108496  MISS:      35222  HIT %:    96.9204  MISS %:    3.07961   MPKI: 0.70444
L2C LOAD TRANSLATION ACCESS:      36211  HIT:      16212  MISS:      19999  HIT %:    44.7709  MISS %:    55.2291   MPKI: 0.39998
L2C PREFETCH  REQUESTED:     396880  ISSUED:     396878  USEFUL:      61516  USELESS:     589969
L2C USEFUL LOAD PREFETCHES:      61516 PREFETCH ISSUED TO LOWER LEVEL:     654096  ACCURACY: 9.40474
L2C TIMELY PREFETCHES:      61516 LATE PREFETCHES: 2473 DROPPED PREFETCHES: 0
L2C PREFETCHES SAME FILL-ORIGIN LEVEL: 160552 DIFFERENT FILL-ORIGIN LEVEL: 0
L2C AVERAGE MISS LATENCY: 188.393 cycles
L2C RQ	ACCESS:    3938907	FORWARD:          0	MERGED:          0	TO_CACHE:    3938873
L2C WQ	ACCESS:    1143718	FORWARD:         42	MERGED:          0	TO_CACHE:    1143718
L2C PQ	ACCESS:    1154844	FORWARD:          0	MERGED:      24260	TO_CACHE:    1130576

L2C Instructions Evicting Data 149618
L2C Translations Evicting Data 18324
L2C Data Evicting Data 1702864
L2C Instructions Evicting Instructions 13069
L2C Translations Evicting Instructions 1432
L2C Data Evicting Instructions 147158
L2C Instructions Evicting Translations 1363
L2C Translations Evicting Translations 243
L2C Data Evicting Translations 18121
L2C Dense regions hint from L2: 0
PSCL5 TOTAL     ACCESS:      32815  HIT:      32815  MISS:          0  HIT %:        100  MISS %:          0   MPKI: 0
PSCL5 LOAD TRANSLATION ACCESS:      32815  HIT:      32815  MISS:          0  HIT %:        100  MISS %:          0   MPKI: 0
PSCL5 PREFETCH  REQUESTED:          0  ISSUED:          0  USEFUL:          0  USELESS:          0
PSCL5 USEFUL LOAD PREFETCHES:          0 PREFETCH ISSUED TO LOWER LEVEL:          0  ACCURACY: -nan
PSCL5 TIMELY PREFETCHES:          0 LATE PREFETCHES: 0 DROPPED PREFETCHES: 0
PSCL5 PREFETCHES SAME FILL-ORIGIN LEVEL: 0 DIFFERENT FILL-ORIGIN LEVEL: 0

PSCL4 TOTAL     ACCESS:      32163  HIT:      32066  MISS:         97  HIT %:    99.6984  MISS %:   0.301589   MPKI: 0.00194
PSCL4 LOAD TRANSLATION ACCESS:      32163  HIT:      32066  MISS:         97  HIT %:    99.6984  MISS %:   0.301589   MPKI: 0.00194
PSCL4 PREFETCH  REQUESTED:          0  ISSUED:          0  USEFUL:          0  USELESS:          0
PSCL4 USEFUL LOAD PREFETCHES:          0 PREFETCH ISSUED TO LOWER LEVEL:          0  ACCURACY: -nan
PSCL4 TIMELY PREFETCHES:          0 LATE PREFETCHES: 0 DROPPED PREFETCHES: 0
PSCL4 PREFETCHES SAME FILL-ORIGIN LEVEL: 0 DIFFERENT FILL-ORIGIN LEVEL: 0

PSCL3 TOTAL     ACCESS:      32549  HIT:      32452  MISS:         97  HIT %:     99.702  MISS %:   0.298012   MPKI: 0.00194
PSCL3 LOAD TRANSLATION ACCESS:      32549  HIT:      32452  MISS:         97  HIT %:     99.702  MISS %:   0.298012   MPKI: 0.00194
PSCL3 PREFETCH  REQUESTED:          0  ISSUED:          0  USEFUL:          0  USELESS:          0
PSCL3 USEFUL LOAD PREFETCHES:          0 PREFETCH ISSUED TO LOWER LEVEL:          0  ACCURACY: -nan
PSCL3 TIMELY PREFETCHES:          0 LATE PREFETCHES: 0 DROPPED PREFETCHES: 0
PSCL3 PREFETCHES SAME FILL-ORIGIN LEVEL: 0 DIFFERENT FILL-ORIGIN LEVEL: 0

PSCL2 TOTAL     ACCESS:      32815  HIT:      29588  MISS:       3227  HIT %:    90.1661  MISS %:    9.83392   MPKI: 0.06454
PSCL2 LOAD TRANSLATION ACCESS:      32815  HIT:      29588  MISS:       3227  HIT %:    90.1661  MISS %:    9.83392   MPKI: 0.06454
PSCL2 PREFETCH  REQUESTED:          0  ISSUED:          0  USEFUL:          0  USELESS:          0
PSCL2 USEFUL LOAD PREFETCHES:          0 PREFETCH ISSUED TO LOWER LEVEL:          0  ACCURACY: -nan
PSCL2 TIMELY PREFETCHES:          0 LATE PREFETCHES: 0 DROPPED PREFETCHES: 0
PSCL2 PREFETCHES SAME FILL-ORIGIN LEVEL: 0 DIFFERENT FILL-ORIGIN LEVEL: 0

LLC TOTAL     ACCESS:    3136008  HIT:    1724331  MISS:    1411677  HIT %:    54.9849  MISS %:    45.0151   MPKI: 28.2335
LLC LOAD      ACCESS:     457583  HIT:     321642  MISS:     135941  HIT %:    70.2915  MISS %:    29.7085   MPKI: 2.71882
LLC RFO       ACCESS:     920511  HIT:     123980  MISS:     796531  HIT %:    13.4686  MISS %:    86.5314   MPKI: 15.9306
LLC PREFETCH  ACCESS:     654096  HIT:     186078  MISS:     468018  HIT %:    28.4481  MISS %:    71.5519   MPKI: 9.36036
LLC WRITEBACK ACCESS:    1083819  HIT:    1081648  MISS:       2171  HIT %:    99.7997  MISS %:    0.20031   MPKI: 0.04342
LLC LOAD TRANSLATION ACCESS:      19999  HIT:      10983  MISS:       9016  HIT %:    54.9177  MISS %:    45.0823   MPKI: 0.18032
LLC PREFETCH  REQUESTED:          0  ISSUED:          0  USEFUL:      13425  USELESS:     454324
LLC USEFUL LOAD PREFETCHES:      13425 PREFETCH ISSUED TO LOWER LEVEL:     468018  ACCURACY: 2.86848
LLC TIMELY PREFETCHES:      13425 LATE PREFETCHES: 0 DROPPED PREFETCHES: 0
LLC PREFETCHES SAME FILL-ORIGIN LEVEL: 0 DIFFERENT FILL-ORIGIN LEVEL: 0
LLC AVERAGE MISS LATENCY: 233.382 cycles
LLC RQ	ACCESS:    1398095	FORWARD:          0	MERGED:          0	TO_CACHE:    1398092
LLC WQ	ACCESS:    1083819	FORWARD:          3	MERGED:          0	TO_CACHE:    1083819
LLC PQ	ACCESS:     654096	FORWARD:          0	MERGED:          0	TO_CACHE:     654096

LLC Dense regions hint to LLC: 0

RAW hits: 890646
Loads Generated: 12379521
Loads sent to L1D: 11488875
Stores Generated: 8689727
Stores sent to L1D: 8689751
Major fault: 0 Minor fault: 14374
Allocated PAGES: 14374

stream: 
stream:times selected: 2334065
stream:pref_filled: 846865
stream:pref_useful: 377053
stream:pref_late: 21216
stream:misses: 17119
stream:misses_by_poll: 0

CS: 
CS:times selected: 2005780
CS:pref_filled: 7253
CS:pref_useful: 6945
CS:pref_late: 288
CS:misses: 24014
CS:misses_by_poll: 8

CPLX: 
CPLX:times selected: 324519
CPLX:pref_filled: 22953
CPLX:pref_useful: 932
CPLX:pref_late: 242
CPLX:misses: 57130
CPLX:misses_by_poll: 10

NL_L1: 
NL:times selected: 1095
NL:pref_filled: 428
NL:pref_useful: 25
NL:pref_late: 16
NL:misses: 513
NL:misses_by_poll: 0

total selections: 4665459
total_filled: 735699
total_useful: 322226
total_late: 22967
total_polluted: 18
total_misses_after_warmup: 621760
conflicts: 2649067
Degree Incremented Times: 30379
Degree Decremented Times: 130995

L1 IP Table Write Accesses: 5182538
L1 IP Table Read Accesses: 2533471
L1 RST Write Accesses: 1938754
L1 RST Read Accesses: 3877508
L1 CSPT Write Accesses: 1938754
L1 CSPT Read Accesses: 2206504
L1 RR Filter Tag Write Accesses: 1359272
L1 RR Filter Tag Read Accesses: 466840133
L1 IP Table Tag Write Accesses: 8004003
L1 IP Table Tag Read Accesses: 8004003
L1 RST Tag Write Accesses: 0
L1 RST Tag Read Accesses: 17658253
L1 RR Filter Write Accesses: 0
L1 RR Filter Read Accesses: 16129641
test: 170161
L2 IP Table Read Accesses: 2222110
L2 IP Table Write Accesses: 2345386
L2 IP Table Tag Read Accesses: 1305183
L2 IP Table Tag Write Accesses: 1305183

DRAM Statistics
 CHANNEL 0
 RQ ROW_BUFFER_HIT:     439853  ROW_BUFFER_MISS:     969489
 DBUS_CONGESTED:        505
 WQ ROW_BUFFER_HIT:     219459  ROW_BUFFER_MISS:     667441  FULL:          0

 AVG_CONGESTED_CYCLE: 3
 All warmup complete: 2
Channel 0 Bank busy for read cycles: 0
Channel 0 Bank busy for write cycles: 0
Channel 0
Rank 0
0banks busy for read cycles: 39321777
0banks busy for write cycles: 45711
1banks busy for read cycles: 14685099
1banks busy for write cycles: 5615978
2banks busy for read cycles: 10591074
2banks busy for write cycles: 3132923
3banks busy for read cycles: 4693580
3banks busy for write cycles: 2075018
4banks busy for read cycles: 5526960
4banks busy for write cycles: 1643720
5banks busy for read cycles: 2979804
5banks busy for write cycles: 1422680
6banks busy for read cycles: 2224132
6banks busy for write cycles: 1331656
7banks busy for read cycles: 3491781
7banks busy for write cycles: 2172160
8banks busy for read cycles: 5840471
8banks busy for write cycles: 12021582

CPU 0 Branch Prediction Accuracy: 96.2778% MPKI: 6.17182 Average ROB Occupancy at Mispredict: 51.9997
Branch types
NOT_BRANCH: 41709094 83.4182%
BRANCH_DIRECT_JUMP: 456401 0.912802%
BRANCH_INDIRECT: 50013 0.100026%
BRANCH_CONDITIONAL: 5963707 11.9274%
BRANCH_DIRECT_CALL: 742782 1.48556%
BRANCH_INDIRECT_CALL: 167454 0.334908%
BRANCH_RETURN: 910238 1.82048%
BRANCH_OTHER: 0 0%

@sumon_overall_L1D    322226     22227    413463    735699   2600562   2659497
@Sumon_Early_by_class_L1D    314085      5941       779        15
@Sumon_Late_by_class_L1D     20524       275       220        15

@Sumon_Early_by_cycle_L1D     80140    171195     62559      1191       274      1578      1081       794      1421      1244       479       270
@Sumon_Late_by_cycle_L1D     10381     10152      1686         7         0         1         0         0         0         0         0         0
@Sumon_Early_stream_L1D     78081    166335     61887      1064       231      1389       984       751      1410      1211       475       267
@Sumon_Early_CS_L1D      1628      4066       217        23         0         5         2         0         0         0         0         0
@Sumon_Early_CPLX_L1D       151        57        82        99        39       173        93        40        11        27         4         3
@Sumon_Late_stream_L1D      9155      9687      1675         6         0         1         0         0         0         0         0         0
@Sumon_Late_CS_L1D       151       113        11         0         0         0         0         0         0         0         0         0
@Sumon_Late_CPLX_L1D        40       179         0         1         0         0         0         0         0         0         0         0
@sumon_overall_L2C     61516      2473    589969    651623    396878    396880
@Sumon_Early_by_class_L2C      7632        36       304         0
@Sumon_Late_by_class_L2C         0         0         0         0

@Sumon_Early_by_cycle_L2C      7557      6166      5629      2204      1720     12064      3463      1555      6938      2904      2564      8752
@Sumon_Late_by_cycle_L2C      1585       883         5         0         0         0         0         0         0         0         0         0
@Sumon_Early_stream_L2C         0         8        10         3         2       111       427       990       723       558       777      4023
@Sumon_Early_CS_L2C         1         0         0         0         0         0        11         6        10         3         2         3
@Sumon_Early_CPLX_L2C         0         0         0         0         0         9        39       120        11        14        15        96
@Sumon_Late_stream_L2C         0         0         0         0         0         0         0         0         0         0         0         0
@Sumon_Late_CS_L2C         0         0         0         0         0         0         0         0         0         0         0         0
@Sumon_Late_CPLX_L2C         0         0         0         0         0         0         0         0         0         0         0         0
DRAM PAGES: 1048576
Allocated PAGES: 14374
