
*** ChampSim Multicore Out-of-Order Simulator ***

Warmup Instructions: 10000000
Simulation Instructions: 50000000
Number of CPUs: 1
LLC sets: 2048
LLC ways: 16
Off-chip DRAM Size: 4096 MB Channels: 1 Width: 64-bit Data Rate: 800 MT/s
CPU 0 runs traces/graph/BellmanFord_94B.trace.gz
.gz
CPU 0 Bimodal branch predictor
BTB has LRU replacement policy
ITLB has LRU replacement policy
DTLB has LRU replacement policy
STLB has LRU replacement policy
L1I has LRU replacement policy
IP Table Entries: 256
L1D has LRU replacement policy
IP_Table L2 entries: 256
L2C has LRU replacement policy
LLC has LRU replacement policy
Heartbeat CPU 0 instructions: 10000002 cycles: 3254596 heartbeat IPC: 3.07258 cumulative IPC: 3.07258 (Simulation time: 0 hr 16 min 23 sec) 

Warmup complete CPU 0 instructions: 10000002 cycles: 3254596 (Simulation time: 0 hr 16 min 23 sec) 

Heartbeat CPU 0 instructions: 20000002 cycles: 92992310 heartbeat IPC: 0.111436 cumulative IPC: 0.111436 (Simulation time: 0 hr 41 min 50 sec) 
Heartbeat CPU 0 instructions: 30000001 cycles: 178147536 heartbeat IPC: 0.117433 cumulative IPC: 0.114356 (Simulation time: 1 hr 7 min 39 sec) 
Heartbeat CPU 0 instructions: 40000001 cycles: 266989411 heartbeat IPC: 0.11256 cumulative IPC: 0.113751 (Simulation time: 1 hr 31 min 24 sec) 
Heartbeat CPU 0 instructions: 50000000 cycles: 356830924 heartbeat IPC: 0.111307 cumulative IPC: 0.11313 (Simulation time: 1 hr 50 min 14 sec) 
Heartbeat CPU 0 instructions: 60000000 cycles: 451548137 heartbeat IPC: 0.105577 cumulative IPC: 0.111534 (Simulation time: 2 hr 3 min 21 sec) 
Finished CPU 0 instructions: 50000000 cycles: 448293548 cumulative IPC: 0.111534 (Simulation time: 2 hr 3 min 21 sec) 

ChampSim completed all CPUs

Region of Interest Statistics

CPU 0 cumulative IPC: 0.111534 instructions: 50000000 cycles: 448293548
ITLB TOTAL     ACCESS:    7092011  HIT:    7092011  MISS:          0  HIT %:        100  MISS %:          0   MPKI: 0
ITLB LOAD TRANSLATION ACCESS:    7092011  HIT:    7092011  MISS:          0  HIT %:        100  MISS %:          0   MPKI: 0
ITLB PREFETCH  REQUESTED:          0  ISSUED:          0  USEFUL:          0  USELESS:          0
ITLB USEFUL LOAD PREFETCHES:          0 PREFETCH ISSUED TO LOWER LEVEL:          0  ACCURACY: -nan
ITLB TIMELY PREFETCHES:          0 LATE PREFETCHES: 0 DROPPED PREFETCHES: 0
ITLB PREFETCHES SAME FILL-ORIGIN LEVEL: 0 DIFFERENT FILL-ORIGIN LEVEL: 0
ITLB AVERAGE MISS LATENCY: -nan cycles
ITLB RQ	ACCESS:    8037397	FORWARD:          0	MERGED:     945386	TO_CACHE:    7092011

DTLB TOTAL     ACCESS:   13506333  HIT:   10310812  MISS:    3195521  HIT %:    76.3406  MISS %:    23.6594   MPKI: 63.9104
DTLB LOAD TRANSLATION ACCESS:   13506333  HIT:   10310812  MISS:    3195521  HIT %:    76.3406  MISS %:    23.6594   MPKI: 63.9104
DTLB PREFETCH  REQUESTED:          0  ISSUED:          0  USEFUL:          0  USELESS:          0
DTLB USEFUL LOAD PREFETCHES:          0 PREFETCH ISSUED TO LOWER LEVEL:          0  ACCURACY: -nan
DTLB TIMELY PREFETCHES:          0 LATE PREFETCHES: 0 DROPPED PREFETCHES: 0
DTLB PREFETCHES SAME FILL-ORIGIN LEVEL: 0 DIFFERENT FILL-ORIGIN LEVEL: 0
DTLB AVERAGE MISS LATENCY: 59.3747 cycles
DTLB RQ	ACCESS:   13735377	FORWARD:          0	MERGED:     225335	TO_CACHE:   13510042

STLB TOTAL     ACCESS:    6330295  HIT:    4385415  MISS:    1944880  HIT %:    69.2766  MISS %:    30.7234   MPKI: 38.8976
STLB LOAD TRANSLATION ACCESS:    3195521  HIT:    1252407  MISS:    1943114  HIT %:    39.1926  MISS %:    60.8074   MPKI: 38.8623
STLB TRANSLATION FROM L1D PREFETCHER ACCESS:    3134774  HIT:    3133008  MISS:       1766  HIT %:    99.9437  MISS %:  0.0563358   MPKI: 0.03532
STLB PREFETCH  REQUESTED:          0  ISSUED:          0  USEFUL:       1680  USELESS:         86
STLB USEFUL LOAD PREFETCHES:       1680 PREFETCH ISSUED TO LOWER LEVEL:          0  ACCURACY: inf
STLB TIMELY PREFETCHES:       1680 LATE PREFETCHES: 0 DROPPED PREFETCHES: 0
STLB PREFETCHES SAME FILL-ORIGIN LEVEL: 0 DIFFERENT FILL-ORIGIN LEVEL: 0
STLB AVERAGE MISS LATENCY: 82.2134 cycles
STLB RQ	ACCESS:    6750124	FORWARD:          0	MERGED:     419791	TO_CACHE:    6330333

STLB Hit, L1D data hit: 0
STLB Hit, L2C data hit: 0
STLB Hit, LLC data hit: 0
STLB Hit, LLC data miss: 0
STLB STLB hints to L2: 0
L1D TOTAL     ACCESS:   17249616  HIT:   10765514  MISS:    6484102  HIT %:    62.4102  MISS %:    37.5898   MPKI: 129.682
L1D LOAD      ACCESS:   12723637  HIT:    9725071  MISS:    2998566  HIT %:    76.4331  MISS %:    23.5669   MPKI: 59.9713
L1D RFO       ACCESS:     980169  HIT:     678704  MISS:     301465  HIT %:    69.2436  MISS %:    30.7564   MPKI: 6.0293
L1D PREFETCH  ACCESS:    3545810  HIT:     361739  MISS:    3184071  HIT %:    10.2019  MISS %:    89.7981   MPKI: 63.6814
L1D PREFETCH  REQUESTED:    7109208  ISSUED:    7109208  USEFUL:     656630  USELESS:    2527458
L1D USEFUL LOAD PREFETCHES:     656630 PREFETCH ISSUED TO LOWER LEVEL:    3187336  ACCURACY: 20.6012
L1D TIMELY PREFETCHES:     656630 LATE PREFETCHES: 3261 DROPPED PREFETCHES: 0
L1D PREFETCHES SAME FILL-ORIGIN LEVEL: 3187336 DIFFERENT FILL-ORIGIN LEVEL: 0
L1D AVERAGE MISS LATENCY: 100245 cycles
L1D RQ	ACCESS:   19137027	FORWARD:          0	MERGED:    6381845	TO_CACHE:   12755182
L1D WQ	ACCESS:     980195	FORWARD:          0	MERGED:          0	TO_CACHE:     980195
L1D PQ	ACCESS:    3554604	FORWARD:          0	MERGED:          0	TO_CACHE:    3554604

L1D UNIQUE REGIONS ACCESSED: 0
L1D REGIONS CONFLICTS: 0
L1D Cross Page Prefetch Requests: 0
L1D Same Page Prefetch Requests: 4277987
L1D ROI Sum of L1D PQ occupancy: 47888169
L1D PREFETCHES PUSHED FROM L2C: 0
L1I TOTAL     ACCESS:    8037397  HIT:    8037397  MISS:          0  HIT %:        100  MISS %:          0   MPKI: 0
L1I LOAD      ACCESS:    8037397  HIT:    8037397  MISS:          0  HIT %:        100  MISS %:          0   MPKI: 0
L1I PREFETCH  REQUESTED:          0  ISSUED:          0  USEFUL:          0  USELESS:          0
L1I USEFUL LOAD PREFETCHES:          0 PREFETCH ISSUED TO LOWER LEVEL:          0  ACCURACY: -nan
L1I TIMELY PREFETCHES:          0 LATE PREFETCHES: 0 DROPPED PREFETCHES: 0
L1I PREFETCHES SAME FILL-ORIGIN LEVEL: 0 DIFFERENT FILL-ORIGIN LEVEL: 0
L1I AVERAGE MISS LATENCY: -nan cycles
L1I RQ	ACCESS:   12763362	FORWARD:          0	MERGED:    4725965	TO_CACHE:    8037397

BTB TOTAL     ACCESS:    7642883  HIT:    7642876  MISS:          7  HIT %:    99.9999  MISS %: 9.15885e-05   MPKI: 0.00014
BTB BRANCH_DIRECT_JUMP	ACCESS:     389208  HIT:     389207  MISS:          1
BTB BRANCH_INDIRECT	ACCESS:          0  HIT:          0  MISS:          0
BTB BRANCH_CONDITIONAL	ACCESS:    7253675  HIT:    7253669  MISS:          6
BTB BRANCH_DIRECT_CALL	ACCESS:          0  HIT:          0  MISS:          0
BTB BRANCH_INDIRECT_CALL	ACCESS:          0  HIT:          0  MISS:          0
BTB BRANCH_RETURN	ACCESS:          0  HIT:          0  MISS:          0
BTB BRANCH_OTHER ACCESS:          0  HIT:          0  MISS:          0

L2C TOTAL     ACCESS:   11584569  HIT:    5399495  MISS:    6185074  HIT %:    46.6094  MISS %:    53.3906   MPKI: 123.701
L2C LOAD      ACCESS:    2995296  HIT:     436732  MISS:    2558564  HIT %:    14.5806  MISS %:    85.4194   MPKI: 51.1713
L2C DATA LOAD MPKI: 51.1713
L2C INSTRUCTION LOAD MPKI: 0
L2C RFO       ACCESS:     301463  HIT:      11091  MISS:     290372  HIT %:    3.67906  MISS %:    96.3209   MPKI: 5.80744
L2C PREFETCH  ACCESS:    4813578  HIT:    1937693  MISS:    2875885  HIT %:    40.2547  MISS %:    59.7453   MPKI: 57.5177
L2C DATA PREFETCH MPKI: 57.5177
L2C INSTRUCTION PREFETCH MPKI: 0
L2C WRITEBACK ACCESS:     973217  HIT:     973145  MISS:         72  HIT %:    99.9926  MISS %: 0.00739814   MPKI: 0.00144
L2C LOAD TRANSLATION ACCESS:    2499048  HIT:    2038901  MISS:     460147  HIT %:    81.5871  MISS %:    18.4129   MPKI: 9.20294
L2C TRANSLATION FROM L1D PREFETCHER ACCESS:       1967  HIT:       1933  MISS:         34  HIT %:    98.2715  MISS %:    1.72852   MPKI: 0.00068
L2C PREFETCH  REQUESTED:    1891381  ISSUED:    1891375  USEFUL:     148768  USELESS:    2727085
L2C USEFUL LOAD PREFETCHES:     148768 PREFETCH ISSUED TO LOWER LEVEL:    2876389  ACCURACY: 5.17204
L2C TIMELY PREFETCHES:     148768 LATE PREFETCHES: 504 DROPPED PREFETCHES: 0
L2C PREFETCHES SAME FILL-ORIGIN LEVEL: 639219 DIFFERENT FILL-ORIGIN LEVEL: 0
L2C AVERAGE MISS LATENCY: 265.387 cycles
L2C RQ	ACCESS:    5797785	FORWARD:          0	MERGED:          0	TO_CACHE:    5797774
L2C WQ	ACCESS:     973217	FORWARD:         14	MERGED:          0	TO_CACHE:     973217
L2C PQ	ACCESS:    5078704	FORWARD:          0	MERGED:     221441	TO_CACHE:    4857260

L2C Instructions Evicting Data 0
L2C Translations Evicting Data 425284
L2C Data Evicting Data 5299638
L2C Instructions Evicting Instructions 0
L2C Translations Evicting Instructions 0
L2C Data Evicting Instructions 0
L2C Instructions Evicting Translations 0
L2C Translations Evicting Translations 34897
L2C Data Evicting Translations 425183
L2C Dense regions hint from L2: 0
PSCL5 TOTAL     ACCESS:    1944879  HIT:    1944879  MISS:          0  HIT %:        100  MISS %:          0   MPKI: 0
PSCL5 LOAD TRANSLATION ACCESS:    1943113  HIT:    1943113  MISS:          0  HIT %:        100  MISS %:          0   MPKI: 0
PSCL5 TRANSLATION FROM L1D PREFETCHER ACCESS:       1766  HIT:       1766  MISS:          0  HIT %:        100  MISS %:          0   MPKI: 0
PSCL5 PREFETCH  REQUESTED:          0  ISSUED:          0  USEFUL:          0  USELESS:          0
PSCL5 USEFUL LOAD PREFETCHES:          0 PREFETCH ISSUED TO LOWER LEVEL:          0  ACCURACY: -nan
PSCL5 TIMELY PREFETCHES:          0 LATE PREFETCHES: 0 DROPPED PREFETCHES: 0
PSCL5 PREFETCHES SAME FILL-ORIGIN LEVEL: 0 DIFFERENT FILL-ORIGIN LEVEL: 0

PSCL4 TOTAL     ACCESS:    1944879  HIT:    1944879  MISS:          0  HIT %:        100  MISS %:          0   MPKI: 0
PSCL4 LOAD TRANSLATION ACCESS:    1943113  HIT:    1943113  MISS:          0  HIT %:        100  MISS %:          0   MPKI: 0
PSCL4 TRANSLATION FROM L1D PREFETCHER ACCESS:       1766  HIT:       1766  MISS:          0  HIT %:        100  MISS %:          0   MPKI: 0
PSCL4 PREFETCH  REQUESTED:          0  ISSUED:          0  USEFUL:          0  USELESS:          0
PSCL4 USEFUL LOAD PREFETCHES:          0 PREFETCH ISSUED TO LOWER LEVEL:          0  ACCURACY: -nan
PSCL4 TIMELY PREFETCHES:          0 LATE PREFETCHES: 0 DROPPED PREFETCHES: 0
PSCL4 PREFETCHES SAME FILL-ORIGIN LEVEL: 0 DIFFERENT FILL-ORIGIN LEVEL: 0

PSCL3 TOTAL     ACCESS:    1944879  HIT:    1944879  MISS:          0  HIT %:        100  MISS %:          0   MPKI: 0
PSCL3 LOAD TRANSLATION ACCESS:    1943113  HIT:    1943113  MISS:          0  HIT %:        100  MISS %:          0   MPKI: 0
PSCL3 TRANSLATION FROM L1D PREFETCHER ACCESS:       1766  HIT:       1766  MISS:          0  HIT %:        100  MISS %:          0   MPKI: 0
PSCL3 PREFETCH  REQUESTED:          0  ISSUED:          0  USEFUL:          0  USELESS:          0
PSCL3 USEFUL LOAD PREFETCHES:          0 PREFETCH ISSUED TO LOWER LEVEL:          0  ACCURACY: -nan
PSCL3 TIMELY PREFETCHES:          0 LATE PREFETCHES: 0 DROPPED PREFETCHES: 0
PSCL3 PREFETCHES SAME FILL-ORIGIN LEVEL: 0 DIFFERENT FILL-ORIGIN LEVEL: 0

PSCL2 TOTAL     ACCESS:    1944880  HIT:    1388721  MISS:     556159  HIT %:    71.4039  MISS %:    28.5961   MPKI: 11.1232
PSCL2 LOAD TRANSLATION ACCESS:    1943315  HIT:    1387156  MISS:     556159  HIT %:    71.3809  MISS %:    28.6191   MPKI: 11.1232
PSCL2 TRANSLATION FROM L1D PREFETCHER ACCESS:       1565  HIT:       1565  MISS:          0  HIT %:        100  MISS %:          0   MPKI: 0
PSCL2 PREFETCH  REQUESTED:          0  ISSUED:          0  USEFUL:          0  USELESS:          0
PSCL2 USEFUL LOAD PREFETCHES:          0 PREFETCH ISSUED TO LOWER LEVEL:          0  ACCURACY: -nan
PSCL2 TIMELY PREFETCHES:          0 LATE PREFETCHES: 0 DROPPED PREFETCHES: 0
PSCL2 PREFETCHES SAME FILL-ORIGIN LEVEL: 0 DIFFERENT FILL-ORIGIN LEVEL: 0

LLC TOTAL     ACCESS:    7137526  HIT:    2065107  MISS:    5072419  HIT %:    28.9331  MISS %:    71.0669   MPKI: 101.448
LLC LOAD      ACCESS:    2558059  HIT:     426735  MISS:    2131324  HIT %:     16.682  MISS %:     83.318   MPKI: 42.6265
LLC RFO       ACCESS:     290370  HIT:      19572  MISS:     270798  HIT %:    6.74037  MISS %:    93.2596   MPKI: 5.41596
LLC PREFETCH  ACCESS:    2876388  HIT:     363176  MISS:    2513212  HIT %:    12.6261  MISS %:    87.3739   MPKI: 50.2642
LLC WRITEBACK ACCESS:     952528  HIT:     951900  MISS:        628  HIT %:    99.9341  MISS %:  0.0659298   MPKI: 0.01256
LLC LOAD TRANSLATION ACCESS:     460147  HIT:     303706  MISS:     156441  HIT %:     66.002  MISS %:     33.998   MPKI: 3.12882
LLC TRANSLATION FROM L1D PREFETCHER ACCESS:         34  HIT:         18  MISS:         16  HIT %:    52.9412  MISS %:    47.0588   MPKI: 0.00032
LLC PREFETCH  REQUESTED:          0  ISSUED:          0  USEFUL:     143416  USELESS:    2368875
LLC USEFUL LOAD PREFETCHES:     143416 PREFETCH ISSUED TO LOWER LEVEL:    2513212  ACCURACY: 5.70648
LLC TIMELY PREFETCHES:     143416 LATE PREFETCHES: 0 DROPPED PREFETCHES: 0
LLC PREFETCHES SAME FILL-ORIGIN LEVEL: 0 DIFFERENT FILL-ORIGIN LEVEL: 0
LLC AVERAGE MISS LATENCY: 286.887 cycles
LLC RQ	ACCESS:    3308613	FORWARD:          0	MERGED:          0	TO_CACHE:    3308610
LLC WQ	ACCESS:     952528	FORWARD:          4	MERGED:          0	TO_CACHE:     952528
LLC PQ	ACCESS:    2876389	FORWARD:          0	MERGED:          0	TO_CACHE:    2876388

LLC Dense regions hint to LLC: 0

RAW hits: 0
Loads Generated: 19137029
Loads sent to L1D: 19137027
Stores Generated: 980194
Stores sent to L1D: 980195
Major fault: 0 Minor fault: 49786
Allocated PAGES: 49786

stream: 
stream:times selected: 5550162
stream:pref_filled: 2872378
stream:pref_useful: 53683
stream:pref_late: 812
stream:misses: 1029411
stream:misses_by_poll: 0

CS: 
CS:times selected: 1768766
CS:pref_filled: 832116
CS:pref_useful: 726014
CS:pref_late: 3169
CS:misses: 79551
CS:misses_by_poll: 1972

CPLX: 
CPLX:times selected: 3656186
CPLX:pref_filled: 126079
CPLX:pref_useful: 2455
CPLX:pref_late: 24
CPLX:misses: 2531901
CPLX:misses_by_poll: 109

NL_L1: 
NL:times selected: 4469
NL:pref_filled: 3669
NL:pref_useful: 82
NL:pref_late: 2
NL:misses: 4391
NL:misses_by_poll: 0

total selections: 10979583
total_filled: 3184071
total_useful: 656630
total_late: 4130
total_polluted: 2081
total_misses_after_warmup: 3030114
conflicts: 0
Degree Incremented Times: 60613
Degree Decremented Times: 141733

L1 IP Table Write Accesses: 12755185
L1 IP Table Read Accesses: 12755185
L1 RST Write Accesses: 4676663
L1 RST Read Accesses: 9353326
L1 CSPT Write Accesses: 4676663
L1 CSPT Read Accesses: 7721143
L1 RR Filter Tag Write Accesses: 3554604
L1 RR Filter Tag Read Accesses: 229431846
L1 IP Table Tag Write Accesses: 12755185
L1 IP Table Tag Read Accesses: 12755185
L1 RST Tag Write Accesses: 0
L1 RST Tag Read Accesses: 42681259
L1 RR Filter Write Accesses: 0
L1 RR Filter Read Accesses: 9254748
test: 2800202
L2 IP Table Read Accesses: 12158526
L2 IP Table Write Accesses: 9163230
L2 IP Table Tag Read Accesses: 6079263
L2 IP Table Tag Write Accesses: 6079263

DRAM Statistics
 CHANNEL 0
 RQ ROW_BUFFER_HIT:      69860  ROW_BUFFER_MISS:    5000808
 DBUS_CONGESTED:    4097511
 WQ ROW_BUFFER_HIT:     603098  ROW_BUFFER_MISS:     312664  FULL:          0

 AVG_CONGESTED_CYCLE: 31
 All warmup complete: 2
Channel 0 Bank busy for read cycles: 0
Channel 0 Bank busy for write cycles: 0
Channel 0
Rank 0
0banks busy for read cycles: 1887878
0banks busy for write cycles: 7617
1banks busy for read cycles: 103419548
1banks busy for write cycles: 2559912
2banks busy for read cycles: 97777989
2banks busy for write cycles: 3605259
3banks busy for read cycles: 61347260
3banks busy for write cycles: 4889742
4banks busy for read cycles: 42886132
4banks busy for write cycles: 6826772
5banks busy for read cycles: 26359717
5banks busy for write cycles: 10608890
6banks busy for read cycles: 14735439
6banks busy for write cycles: 16920790
7banks busy for read cycles: 6325276
7banks busy for write cycles: 24240863
8banks busy for read cycles: 1860206
8banks busy for write cycles: 22034259

CPU 0 Branch Prediction Accuracy: 87.5765% MPKI: 21.333 Average ROB Occupancy at Mispredict: 27.296
Branch types
NOT_BRANCH: 41413878 82.8278%
BRANCH_DIRECT_JUMP: 389208 0.778416%
BRANCH_INDIRECT: 0 0%
BRANCH_CONDITIONAL: 8196553 16.3931%
BRANCH_DIRECT_CALL: 0 0%
BRANCH_INDIRECT_CALL: 0 0%
BRANCH_RETURN: 0 0%
BRANCH_OTHER: 0 0%

@sumon_overall_L1D    656630      3261   2527458   3184071   7109208   7109208
@Sumon_Early_by_class_L1D     44542    610029      2059         0
@Sumon_Late_by_class_L1D       531      2607        23         0

@Sumon_Early_by_cycle_L1D      5419      2401      7290     10917     13580    150794    277570    120047     35812     21336      7500      3964
@Sumon_Late_by_cycle_L1D       892      1238       976       143        11         1         0         0         0         0         0         0
@Sumon_Early_stream_L1D      2145       454      1425      1703      1544      5493      4242      5951      7400      8369      4566      1250
@Sumon_Early_CS_L1D      3250      1921      5806      9166     11985    145089    273145    113839     28032     12464      2699      2633
@Sumon_Early_CPLX_L1D        24        26        59        48        51       212       183       257       380       503       235        81
@Sumon_Late_stream_L1D       320       131        70         9         1         0         0         0         0         0         0         0
@Sumon_Late_CS_L1D       456      1105       903       133         9         1         0         0         0         0         0         0
@Sumon_Late_CPLX_L1D        16         2         3         1         1         0         0         0         0         0         0         0
@sumon_overall_L2C    148768       504   2727085   2875919   1891375   1891381
@Sumon_Early_by_class_L2C    123052     20158      5557         0
@Sumon_Late_by_class_L2C         0       496         0         0

@Sumon_Early_by_cycle_L2C       122       180       669       794       774      4528      3237      2662      6323     16499     19559     93421
@Sumon_Late_by_cycle_L2C        82       181       216        24         1         0         0         0         0         0         0         0
@Sumon_Early_stream_L2C         0         0         0         0         0         0       101      1343      5550     14461     16698     84899
@Sumon_Early_CS_L2C       122       180       669       794       774      4528      3136      1275       610      1500      2209      4361
@Sumon_Early_CPLX_L2C         0         0         0         0         0         0         0        44       163       537       652      4161
@Sumon_Late_stream_L2C         0         0         0         0         0         0         0         0         0         0         0         0
@Sumon_Late_CS_L2C        74       181       216        24         1         0         0         0         0         0         0         0
@Sumon_Late_CPLX_L2C         0         0         0         0         0         0         0         0         0         0         0         0
DRAM PAGES: 1048576
Allocated PAGES: 49786
