
*** ChampSim Multicore Out-of-Order Simulator ***

Warmup Instructions: 10000000
Simulation Instructions: 50000000
Number of CPUs: 1
LLC sets: 2048
LLC ways: 16
Off-chip DRAM Size: 4096 MB Channels: 1 Width: 64-bit Data Rate: 800 MT/s
CPU 0 runs traces/graph/MIS_85B.trace.gz
.gz
CPU 0 Bimodal branch predictor
BTB has LRU replacement policy
ITLB has LRU replacement policy
DTLB has LRU replacement policy
STLB has LRU replacement policy
L1I has LRU replacement policy
IP Table Entries: 256
L1D has LRU replacement policy
IP_Table L2 entries: 256
L2C has LRU replacement policy
LLC has LRU replacement policy
Heartbeat CPU 0 instructions: 10000003 cycles: 3477677 heartbeat IPC: 2.87548 cumulative IPC: 2.87548 (Simulation time: 0 hr 17 min 0 sec) 

Warmup complete CPU 0 instructions: 10000003 cycles: 3477677 (Simulation time: 0 hr 17 min 0 sec) 

Heartbeat CPU 0 instructions: 20000000 cycles: 134027323 heartbeat IPC: 0.0765992 cumulative IPC: 0.0765992 (Simulation time: 0 hr 38 min 8 sec) 
Heartbeat CPU 0 instructions: 30000000 cycles: 263012444 heartbeat IPC: 0.0775283 cumulative IPC: 0.077061 (Simulation time: 0 hr 58 min 45 sec) 
Heartbeat CPU 0 instructions: 40000000 cycles: 391599065 heartbeat IPC: 0.0777686 cumulative IPC: 0.0772954 (Simulation time: 1 hr 19 min 7 sec) 
Heartbeat CPU 0 instructions: 50000000 cycles: 520827588 heartbeat IPC: 0.0773823 cumulative IPC: 0.0773171 (Simulation time: 1 hr 37 min 50 sec) 
Heartbeat CPU 0 instructions: 60000001 cycles: 647727180 heartbeat IPC: 0.0788025 cumulative IPC: 0.0776097 (Simulation time: 1 hr 52 min 11 sec) 
Finished CPU 0 instructions: 50000002 cycles: 644249504 cumulative IPC: 0.0776097 (Simulation time: 1 hr 52 min 11 sec) 

ChampSim completed all CPUs

Region of Interest Statistics

CPU 0 cumulative IPC: 0.0776097 instructions: 50000002 cycles: 644249504
ITLB TOTAL     ACCESS:    9966581  HIT:    9966581  MISS:          0  HIT %:        100  MISS %:          0   MPKI: 0
ITLB LOAD TRANSLATION ACCESS:    9966581  HIT:    9966581  MISS:          0  HIT %:        100  MISS %:          0   MPKI: 0
ITLB PREFETCH  REQUESTED:          0  ISSUED:          0  USEFUL:          0  USELESS:          0
ITLB USEFUL LOAD PREFETCHES:          0 PREFETCH ISSUED TO LOWER LEVEL:          0  ACCURACY: -nan
ITLB TIMELY PREFETCHES:          0 LATE PREFETCHES: 0 DROPPED PREFETCHES: 0
ITLB PREFETCHES SAME FILL-ORIGIN LEVEL: 0 DIFFERENT FILL-ORIGIN LEVEL: 0
ITLB AVERAGE MISS LATENCY: -nan cycles
ITLB RQ	ACCESS:   11527533	FORWARD:          0	MERGED:    1560952	TO_CACHE:    9966581

DTLB TOTAL     ACCESS:   12736436  HIT:    8504230  MISS:    4232206  HIT %:    66.7709  MISS %:    33.2291   MPKI: 84.6441
DTLB LOAD TRANSLATION ACCESS:   12736436  HIT:    8504230  MISS:    4232206  HIT %:    66.7709  MISS %:    33.2291   MPKI: 84.6441
DTLB PREFETCH  REQUESTED:          0  ISSUED:          0  USEFUL:          0  USELESS:          0
DTLB USEFUL LOAD PREFETCHES:          0 PREFETCH ISSUED TO LOWER LEVEL:          0  ACCURACY: -nan
DTLB TIMELY PREFETCHES:          0 LATE PREFETCHES: 0 DROPPED PREFETCHES: 0
DTLB PREFETCHES SAME FILL-ORIGIN LEVEL: 0 DIFFERENT FILL-ORIGIN LEVEL: 0
DTLB AVERAGE MISS LATENCY: 21.575 cycles
DTLB RQ	ACCESS:   12969907	FORWARD:          0	MERGED:     221300	TO_CACHE:   12748607

STLB TOTAL     ACCESS:    8571740  HIT:    7200809  MISS:    1370931  HIT %:    84.0064  MISS %:    15.9936   MPKI: 27.4186
STLB LOAD TRANSLATION ACCESS:    4232206  HIT:    2861380  MISS:    1370826  HIT %:    67.6097  MISS %:    32.3903   MPKI: 27.4165
STLB TRANSLATION FROM L1D PREFETCHER ACCESS:    4339534  HIT:    4339429  MISS:        105  HIT %:    99.9976  MISS %: 0.00241961   MPKI: 0.0021
STLB PREFETCH  REQUESTED:          0  ISSUED:          0  USEFUL:         94  USELESS:         11
STLB USEFUL LOAD PREFETCHES:         94 PREFETCH ISSUED TO LOWER LEVEL:          0  ACCURACY: inf
STLB TIMELY PREFETCHES:         94 LATE PREFETCHES: 0 DROPPED PREFETCHES: 0
STLB PREFETCHES SAME FILL-ORIGIN LEVEL: 0 DIFFERENT FILL-ORIGIN LEVEL: 0
STLB AVERAGE MISS LATENCY: 38.1432 cycles
STLB RQ	ACCESS:    9328274	FORWARD:          0	MERGED:     756537	TO_CACHE:    8571737

STLB Hit, L1D data hit: 0
STLB Hit, L2C data hit: 0
STLB Hit, LLC data hit: 0
STLB Hit, LLC data miss: 0
STLB STLB hints to L2: 0
L1D TOTAL     ACCESS:   18059724  HIT:    9381161  MISS:    8678563  HIT %:    51.9452  MISS %:    48.0548   MPKI: 173.571
L1D LOAD      ACCESS:   12795817  HIT:    8355434  MISS:    4440383  HIT %:    65.2982  MISS %:    34.7018   MPKI: 88.8077
L1D RFO       ACCESS:     170840  HIT:     170840  MISS:          0  HIT %:        100  MISS %:          0   MPKI: 0
L1D PREFETCH  ACCESS:    5093067  HIT:     854887  MISS:    4238180  HIT %:    16.7853  MISS %:    83.2147   MPKI: 84.7636
L1D PREFETCH  REQUESTED:   10192138  ISSUED:   10192138  USEFUL:     748369  USELESS:    3489829
L1D USEFUL LOAD PREFETCHES:     748369 PREFETCH ISSUED TO LOWER LEVEL:    4238616  ACCURACY: 17.656
L1D TIMELY PREFETCHES:     748369 LATE PREFETCHES: 443 DROPPED PREFETCHES: 0
L1D PREFETCHES SAME FILL-ORIGIN LEVEL: 4238616 DIFFERENT FILL-ORIGIN LEVEL: 0
L1D AVERAGE MISS LATENCY: 17512 cycles
L1D RQ	ACCESS:   14466683	FORWARD:          0	MERGED:    1667616	TO_CACHE:   12799067
L1D WQ	ACCESS:     170840	FORWARD:          0	MERGED:          0	TO_CACHE:     170840
L1D PQ	ACCESS:    5096069	FORWARD:          0	MERGED:          0	TO_CACHE:    5096069

L1D UNIQUE REGIONS ACCESSED: 0
L1D REGIONS CONFLICTS: 0
L1D Cross Page Prefetch Requests: 0
L1D Same Page Prefetch Requests: 6181349
L1D ROI Sum of L1D PQ occupancy: 66438552
L1D PREFETCHES PUSHED FROM L2C: 0
L1I TOTAL     ACCESS:   11527533  HIT:   11527533  MISS:          0  HIT %:        100  MISS %:          0   MPKI: 0
L1I LOAD      ACCESS:   11527533  HIT:   11527533  MISS:          0  HIT %:        100  MISS %:          0   MPKI: 0
L1I PREFETCH  REQUESTED:          0  ISSUED:          0  USEFUL:          0  USELESS:          0
L1I USEFUL LOAD PREFETCHES:          0 PREFETCH ISSUED TO LOWER LEVEL:          0  ACCURACY: -nan
L1I TIMELY PREFETCHES:          0 LATE PREFETCHES: 0 DROPPED PREFETCHES: 0
L1I PREFETCHES SAME FILL-ORIGIN LEVEL: 0 DIFFERENT FILL-ORIGIN LEVEL: 0
L1I AVERAGE MISS LATENCY: -nan cycles
L1I RQ	ACCESS:   14943129	FORWARD:          0	MERGED:    3415596	TO_CACHE:   11527533

BTB TOTAL     ACCESS:   15925227  HIT:   15925214  MISS:         13  HIT %:    99.9999  MISS %: 8.16315e-05   MPKI: 0.00026
BTB BRANCH_DIRECT_JUMP	ACCESS:    1025933  HIT:    1025930  MISS:          3
BTB BRANCH_INDIRECT	ACCESS:          0  HIT:          0  MISS:          0
BTB BRANCH_CONDITIONAL	ACCESS:   14899294  HIT:   14899284  MISS:         10
BTB BRANCH_DIRECT_CALL	ACCESS:          0  HIT:          0  MISS:          0
BTB BRANCH_INDIRECT_CALL	ACCESS:          0  HIT:          0  MISS:          0
BTB BRANCH_RETURN	ACCESS:          0  HIT:          0  MISS:          0
BTB BRANCH_OTHER ACCESS:          0  HIT:          0  MISS:          0

L2C TOTAL     ACCESS:   12017305  HIT:    5295352  MISS:    6721953  HIT %:    44.0644  MISS %:    55.9356   MPKI: 134.439
L2C LOAD      ACCESS:    4439939  HIT:    1256926  MISS:    3183013  HIT %:    28.3095  MISS %:    71.6905   MPKI: 63.6603
L2C DATA LOAD MPKI: 63.6603
L2C INSTRUCTION LOAD MPKI: 0
L2C PREFETCH  ACCESS:    6021248  HIT:    2723011  MISS:    3298237  HIT %:    45.2234  MISS %:    54.7766   MPKI: 65.9647
L2C DATA PREFETCH MPKI: 65.9647
L2C INSTRUCTION PREFETCH MPKI: 0
L2C WRITEBACK ACCESS:     170232  HIT:     170228  MISS:          4  HIT %:    99.9977  MISS %: 0.00234973   MPKI: 8e-05
L2C LOAD TRANSLATION ACCESS:    1385781  HIT:    1145089  MISS:     240692  HIT %:    82.6313  MISS %:    17.3687   MPKI: 4.81384
L2C TRANSLATION FROM L1D PREFETCHER ACCESS:        105  HIT:         98  MISS:          7  HIT %:    93.3333  MISS %:    6.66667   MPKI: 0.00014
L2C PREFETCH  REQUESTED:    1866581  ISSUED:    1866581  USEFUL:     290825  USELESS:    3007200
L2C USEFUL LOAD PREFETCHES:     290825 PREFETCH ISSUED TO LOWER LEVEL:    3298257  ACCURACY: 8.81754
L2C TIMELY PREFETCHES:     290825 LATE PREFETCHES: 20 DROPPED PREFETCHES: 0
L2C PREFETCHES SAME FILL-ORIGIN LEVEL: 611841 DIFFERENT FILL-ORIGIN LEVEL: 0
L2C AVERAGE MISS LATENCY: 171.693 cycles
L2C RQ	ACCESS:    5825824	FORWARD:          0	MERGED:          0	TO_CACHE:    5825824
L2C WQ	ACCESS:     170232	FORWARD:          0	MERGED:          0	TO_CACHE:     170232
L2C PQ	ACCESS:    6105197	FORWARD:          0	MERGED:      61058	TO_CACHE:    6044139

L2C Instructions Evicting Data 0
L2C Translations Evicting Data 232570
L2C Data Evicting Data 6248608
L2C Instructions Evicting Instructions 0
L2C Translations Evicting Instructions 0
L2C Data Evicting Instructions 0
L2C Instructions Evicting Translations 0
L2C Translations Evicting Translations 8129
L2C Data Evicting Translations 232642
L2C Dense regions hint from L2: 0
PSCL5 TOTAL     ACCESS:    1370931  HIT:    1370931  MISS:          0  HIT %:        100  MISS %:          0   MPKI: 0
PSCL5 LOAD TRANSLATION ACCESS:    1370826  HIT:    1370826  MISS:          0  HIT %:        100  MISS %:          0   MPKI: 0
PSCL5 TRANSLATION FROM L1D PREFETCHER ACCESS:        105  HIT:        105  MISS:          0  HIT %:        100  MISS %:          0   MPKI: 0
PSCL5 PREFETCH  REQUESTED:          0  ISSUED:          0  USEFUL:          0  USELESS:          0
PSCL5 USEFUL LOAD PREFETCHES:          0 PREFETCH ISSUED TO LOWER LEVEL:          0  ACCURACY: -nan
PSCL5 TIMELY PREFETCHES:          0 LATE PREFETCHES: 0 DROPPED PREFETCHES: 0
PSCL5 PREFETCHES SAME FILL-ORIGIN LEVEL: 0 DIFFERENT FILL-ORIGIN LEVEL: 0

PSCL4 TOTAL     ACCESS:    1370931  HIT:    1370931  MISS:          0  HIT %:        100  MISS %:          0   MPKI: 0
PSCL4 LOAD TRANSLATION ACCESS:    1370826  HIT:    1370826  MISS:          0  HIT %:        100  MISS %:          0   MPKI: 0
PSCL4 TRANSLATION FROM L1D PREFETCHER ACCESS:        105  HIT:        105  MISS:          0  HIT %:        100  MISS %:          0   MPKI: 0
PSCL4 PREFETCH  REQUESTED:          0  ISSUED:          0  USEFUL:          0  USELESS:          0
PSCL4 USEFUL LOAD PREFETCHES:          0 PREFETCH ISSUED TO LOWER LEVEL:          0  ACCURACY: -nan
PSCL4 TIMELY PREFETCHES:          0 LATE PREFETCHES: 0 DROPPED PREFETCHES: 0
PSCL4 PREFETCHES SAME FILL-ORIGIN LEVEL: 0 DIFFERENT FILL-ORIGIN LEVEL: 0

PSCL3 TOTAL     ACCESS:    1370931  HIT:    1370931  MISS:          0  HIT %:        100  MISS %:          0   MPKI: 0
PSCL3 LOAD TRANSLATION ACCESS:    1370826  HIT:    1370826  MISS:          0  HIT %:        100  MISS %:          0   MPKI: 0
PSCL3 TRANSLATION FROM L1D PREFETCHER ACCESS:        105  HIT:        105  MISS:          0  HIT %:        100  MISS %:          0   MPKI: 0
PSCL3 PREFETCH  REQUESTED:          0  ISSUED:          0  USEFUL:          0  USELESS:          0
PSCL3 USEFUL LOAD PREFETCHES:          0 PREFETCH ISSUED TO LOWER LEVEL:          0  ACCURACY: -nan
PSCL3 TIMELY PREFETCHES:          0 LATE PREFETCHES: 0 DROPPED PREFETCHES: 0
PSCL3 PREFETCHES SAME FILL-ORIGIN LEVEL: 0 DIFFERENT FILL-ORIGIN LEVEL: 0

PSCL2 TOTAL     ACCESS:    1370931  HIT:    1355958  MISS:      14973  HIT %:    98.9078  MISS %:    1.09218   MPKI: 0.29946
PSCL2 LOAD TRANSLATION ACCESS:    1370826  HIT:    1355853  MISS:      14973  HIT %:    98.9077  MISS %:    1.09226   MPKI: 0.29946
PSCL2 TRANSLATION FROM L1D PREFETCHER ACCESS:        105  HIT:        105  MISS:          0  HIT %:        100  MISS %:          0   MPKI: 0
PSCL2 PREFETCH  REQUESTED:          0  ISSUED:          0  USEFUL:          0  USELESS:          0
PSCL2 USEFUL LOAD PREFETCHES:          0 PREFETCH ISSUED TO LOWER LEVEL:          0  ACCURACY: -nan
PSCL2 TIMELY PREFETCHES:          0 LATE PREFETCHES: 0 DROPPED PREFETCHES: 0
PSCL2 PREFETCHES SAME FILL-ORIGIN LEVEL: 0 DIFFERENT FILL-ORIGIN LEVEL: 0

LLC TOTAL     ACCESS:    6890498  HIT:    2291768  MISS:    4598730  HIT %:    33.2598  MISS %:    66.7402   MPKI: 91.9746
LLC LOAD      ACCESS:    3182993  HIT:    1069800  MISS:    2113193  HIT %:    33.6099  MISS %:    66.3901   MPKI: 42.2639
LLC PREFETCH  ACCESS:    3298257  HIT:     875576  MISS:    2422681  HIT %:    26.5466  MISS %:    73.4534   MPKI: 48.4536
LLC WRITEBACK ACCESS:     168549  HIT:     168544  MISS:          5  HIT %:     99.997  MISS %:  0.0029665   MPKI: 0.0001
LLC LOAD TRANSLATION ACCESS:     240692  HIT:     177844  MISS:      62848  HIT %:    73.8886  MISS %:    26.1114   MPKI: 1.25696
LLC TRANSLATION FROM L1D PREFETCHER ACCESS:          7  HIT:          4  MISS:          3  HIT %:    57.1429  MISS %:    42.8571   MPKI: 6e-05
LLC PREFETCH  REQUESTED:          0  ISSUED:          0  USEFUL:     284653  USELESS:    2138056
LLC USEFUL LOAD PREFETCHES:     284653 PREFETCH ISSUED TO LOWER LEVEL:    2422681  ACCURACY: 11.7495
LLC TIMELY PREFETCHES:     284653 LATE PREFETCHES: 0 DROPPED PREFETCHES: 0
LLC PREFETCHES SAME FILL-ORIGIN LEVEL: 0 DIFFERENT FILL-ORIGIN LEVEL: 0
LLC AVERAGE MISS LATENCY: 207.045 cycles
LLC RQ	ACCESS:    3423691	FORWARD:          0	MERGED:          0	TO_CACHE:    3423691
LLC WQ	ACCESS:     168549	FORWARD:          0	MERGED:          0	TO_CACHE:     168549
LLC PQ	ACCESS:    3298257	FORWARD:          0	MERGED:          0	TO_CACHE:    3298257

LLC Dense regions hint to LLC: 0

RAW hits: 6
Loads Generated: 14466693
Loads sent to L1D: 14466683
Stores Generated: 170840
Stores sent to L1D: 170840
Major fault: 0 Minor fault: 27680
Allocated PAGES: 27680

stream: 
stream:times selected: 6345093
stream:pref_filled: 4216374
stream:pref_useful: 105826
stream:pref_late: 642
stream:misses: 1593954
stream:misses_by_poll: 0

CS: 
CS:times selected: 955202
CS:pref_filled: 792930
CS:pref_useful: 776232
CS:pref_late: 448
CS:misses: 25766
CS:misses_by_poll: 1364

CPLX: 
CPLX:times selected: 5194536
CPLX:pref_filled: 116301
CPLX:pref_useful: 3647
CPLX:pref_late: 24
CPLX:misses: 3774006
CPLX:misses_by_poll: 67

NL_L1: 
NL:times selected: 10847
NL:pref_filled: 8733
NL:pref_useful: 243
NL:pref_late: 9
NL:misses: 11398
NL:misses_by_poll: 0

total selections: 12505678
total_filled: 4238180
total_useful: 748369
total_late: 1191
total_polluted: 1431
total_misses_after_warmup: 4443638
conflicts: 0
Degree Incremented Times: 58968
Degree Decremented Times: 133493

L1 IP Table Write Accesses: 12799072
L1 IP Table Read Accesses: 12799072
L1 RST Write Accesses: 5241882
L1 RST Read Accesses: 10483764
L1 CSPT Write Accesses: 5241882
L1 CSPT Read Accesses: 9536469
L1 RR Filter Tag Write Accesses: 5096069
L1 RR Filter Tag Read Accesses: 208122769
L1 IP Table Tag Write Accesses: 12799072
L1 IP Table Tag Read Accesses: 12799072
L1 RST Tag Write Accesses: 0
L1 RST Tag Read Accesses: 47166179
L1 RR Filter Write Accesses: 0
L1 RR Filter Read Accesses: 7540065
test: 3817561
L2 IP Table Read Accesses: 17263568
L2 IP Table Write Accesses: 12823630
L2 IP Table Tag Read Accesses: 8631784
L2 IP Table Tag Write Accesses: 8631784

DRAM Statistics
 CHANNEL 0
 RQ ROW_BUFFER_HIT:      90513  ROW_BUFFER_MISS:    4508209
 DBUS_CONGESTED:    2239828
 WQ ROW_BUFFER_HIT:      67843  ROW_BUFFER_MISS:      97052  FULL:          0

 AVG_CONGESTED_CYCLE: 30
 All warmup complete: 2
Channel 0 Bank busy for read cycles: 0
Channel 0 Bank busy for write cycles: 0
Channel 0
Rank 0
0banks busy for read cycles: 198234622
0banks busy for write cycles: 138647
1banks busy for read cycles: 171021774
1banks busy for write cycles: 33358406
2banks busy for read cycles: 154270610
2banks busy for write cycles: 4174974
3banks busy for read cycles: 50351519
3banks busy for write cycles: 395554
4banks busy for read cycles: 22082891
4banks busy for write cycles: 27748
5banks busy for read cycles: 7260547
5banks busy for write cycles: 1222
6banks busy for read cycles: 2326062
6banks busy for write cycles: 230
7banks busy for read cycles: 523654
7banks busy for write cycles: 0
8banks busy for read cycles: 81045
8banks busy for write cycles: 0

CPU 0 Branch Prediction Accuracy: 76.7317% MPKI: 74.1108 Average ROB Occupancy at Mispredict: 2.24354
Branch types
NOT_BRANCH: 34074329 68.1487%
BRANCH_DIRECT_JUMP: 1025933 2.05187%
BRANCH_INDIRECT: 0 0%
BRANCH_CONDITIONAL: 14899373 29.7987%
BRANCH_DIRECT_CALL: 0 0%
BRANCH_INDIRECT_CALL: 0 0%
BRANCH_RETURN: 0 0%
BRANCH_OTHER: 0 0%

@sumon_overall_L1D    748369       443   3489829   4238180  10192138  10192138
@Sumon_Early_by_class_L1D     87085    658163      3121         0
@Sumon_Late_by_class_L1D       221       175        16         0

@Sumon_Early_by_cycle_L1D      1774      1629      4354      6699      9579     87670    144865    349214     73537     47845     14713      6490
@Sumon_Late_by_cycle_L1D       295       122        24         2         0         0         0         0         0         0         0         0
@Sumon_Early_stream_L1D       945       451       687       578       666      5453      9000     13454     17522     21594     10707      6028
@Sumon_Early_CS_L1D       797      1167      3646      6099      8889     82022    135571    335339     55390     25432      3583       228
@Sumon_Early_CPLX_L1D        32        11        21        22        24       195       294       421       625       819       423       234
@Sumon_Late_stream_L1D       148        67         6         0         0         0         0         0         0         0         0         0
@Sumon_Late_CS_L1D       107        48        18         2         0         0         0         0         0         0         0         0
@Sumon_Late_CPLX_L1D         9         7         0         0         0         0         0         0         0         0         0         0
@sumon_overall_L2C    290825        20   3007200   3298244   1866581   1866581
@Sumon_Early_by_class_L2C    276421      6155      8246         0
@Sumon_Late_by_class_L2C         0        19         0         0

@Sumon_Early_by_cycle_L2C        10        11        16        26        19       227       437      1900      7651     30168     43331    207029
@Sumon_Late_by_cycle_L2C         5        15         0         0         0         0         0         0         0         0         0         0
@Sumon_Early_stream_L2C         0         0         0         0         0         2        43      1158      6139     28422     41158    199499
@Sumon_Early_CS_L2C        10        11        16        26        19       225       394       716      1407      1104      1114      1113
@Sumon_Early_CPLX_L2C         0         0         0         0         0         0         0        26       105       642      1059      6414
@Sumon_Late_stream_L2C         0         0         0         0         0         0         0         0         0         0         0         0
@Sumon_Late_CS_L2C         4        15         0         0         0         0         0         0         0         0         0         0
@Sumon_Late_CPLX_L2C         0         0         0         0         0         0         0         0         0         0         0         0
DRAM PAGES: 1048576
Allocated PAGES: 27680
