
*** ChampSim Multicore Out-of-Order Simulator ***

Warmup Instructions: 10000000
Simulation Instructions: 50000000
Number of CPUs: 1
LLC sets: 2048
LLC ways: 16
Off-chip DRAM Size: 4096 MB Channels: 1 Width: 64-bit Data Rate: 800 MT/s
CPU 0 runs traces/graph/pr_1B.trace.gz
.gz
CPU 0 Bimodal branch predictor
BTB has LRU replacement policy
ITLB has LRU replacement policy
DTLB has LRU replacement policy
STLB has LRU replacement policy
L1I has LRU replacement policy
IP Table Entries: 256
L1D has LRU replacement policy
IP_Table L2 entries: 256
L2C has LRU replacement policy
LLC has LRU replacement policy
Heartbeat CPU 0 instructions: 10000002 cycles: 3831452 heartbeat IPC: 2.60998 cumulative IPC: 2.60998 (Simulation time: 0 hr 20 min 5 sec) 

Warmup complete CPU 0 instructions: 10000002 cycles: 3831452 (Simulation time: 0 hr 20 min 5 sec) 

Heartbeat CPU 0 instructions: 20000001 cycles: 118503203 heartbeat IPC: 0.0872054 cumulative IPC: 0.0872054 (Simulation time: 1 hr 7 min 3 sec) 
Heartbeat CPU 0 instructions: 30000003 cycles: 232668744 heartbeat IPC: 0.0875921 cumulative IPC: 0.0873984 (Simulation time: 1 hr 46 min 25 sec) 
Heartbeat CPU 0 instructions: 40000001 cycles: 346965718 heartbeat IPC: 0.0874914 cumulative IPC: 0.0874293 (Simulation time: 2 hr 8 min 23 sec) 
Heartbeat CPU 0 instructions: 50000003 cycles: 458006729 heartbeat IPC: 0.0900568 cumulative IPC: 0.0880717 (Simulation time: 2 hr 18 min 43 sec) 
Heartbeat CPU 0 instructions: 60000001 cycles: 570524396 heartbeat IPC: 0.0888749 cumulative IPC: 0.0882312 (Simulation time: 2 hr 24 min 16 sec) 
Finished CPU 0 instructions: 50000003 cycles: 566692945 cumulative IPC: 0.0882312 (Simulation time: 2 hr 24 min 16 sec) 

ChampSim completed all CPUs

Region of Interest Statistics

CPU 0 cumulative IPC: 0.0882312 instructions: 50000003 cycles: 566692945
ITLB TOTAL     ACCESS:    8362529  HIT:    8362529  MISS:          0  HIT %:        100  MISS %:          0   MPKI: 0
ITLB LOAD TRANSLATION ACCESS:    8362529  HIT:    8362529  MISS:          0  HIT %:        100  MISS %:          0   MPKI: 0
ITLB PREFETCH  REQUESTED:          0  ISSUED:          0  USEFUL:          0  USELESS:          0
ITLB USEFUL LOAD PREFETCHES:          0 PREFETCH ISSUED TO LOWER LEVEL:          0  ACCURACY: -nan
ITLB TIMELY PREFETCHES:          0 LATE PREFETCHES: 0 DROPPED PREFETCHES: 0
ITLB PREFETCHES SAME FILL-ORIGIN LEVEL: 0 DIFFERENT FILL-ORIGIN LEVEL: 0
ITLB AVERAGE MISS LATENCY: -nan cycles
ITLB RQ	ACCESS:   10548542	FORWARD:          0	MERGED:    2186013	TO_CACHE:    8362529

DTLB TOTAL     ACCESS:   14704450  HIT:    8352539  MISS:    6351911  HIT %:    56.8028  MISS %:    43.1972   MPKI: 127.038
DTLB LOAD TRANSLATION ACCESS:   14704450  HIT:    8352539  MISS:    6351911  HIT %:    56.8028  MISS %:    43.1972   MPKI: 127.038
DTLB PREFETCH  REQUESTED:          0  ISSUED:          0  USEFUL:          0  USELESS:          0
DTLB USEFUL LOAD PREFETCHES:          0 PREFETCH ISSUED TO LOWER LEVEL:          0  ACCURACY: -nan
DTLB TIMELY PREFETCHES:          0 LATE PREFETCHES: 0 DROPPED PREFETCHES: 0
DTLB PREFETCHES SAME FILL-ORIGIN LEVEL: 0 DIFFERENT FILL-ORIGIN LEVEL: 0
DTLB AVERAGE MISS LATENCY: 289.391 cycles
DTLB RQ	ACCESS:   14879955	FORWARD:          0	MERGED:     155747	TO_CACHE:   14724208

STLB TOTAL     ACCESS:   12252786  HIT:    7776773  MISS:    4476013  HIT %:    63.4694  MISS %:    36.5306   MPKI: 89.5203
STLB LOAD TRANSLATION ACCESS:    6351911  HIT:    1878229  MISS:    4473682  HIT %:    29.5695  MISS %:    70.4305   MPKI: 89.4736
STLB TRANSLATION FROM L1D PREFETCHER ACCESS:    5900875  HIT:    5898544  MISS:       2331  HIT %:    99.9605  MISS %:  0.0395026   MPKI: 0.04662
STLB PREFETCH  REQUESTED:          0  ISSUED:          0  USEFUL:       1691  USELESS:        640
STLB USEFUL LOAD PREFETCHES:       1691 PREFETCH ISSUED TO LOWER LEVEL:          0  ACCURACY: inf
STLB TIMELY PREFETCHES:       1691 LATE PREFETCHES: 4 DROPPED PREFETCHES: 0
STLB PREFETCHES SAME FILL-ORIGIN LEVEL: 0 DIFFERENT FILL-ORIGIN LEVEL: 0
STLB AVERAGE MISS LATENCY: 397.711 cycles
STLB RQ	ACCESS:   13126441	FORWARD:          0	MERGED:     873526	TO_CACHE:   12252915

STLB Hit, L1D data hit: 0
STLB Hit, L2C data hit: 0
STLB Hit, LLC data hit: 0
STLB Hit, LLC data miss: 0
STLB STLB hints to L2: 0
L1D TOTAL     ACCESS:   21645847  HIT:    9359471  MISS:   12286376  HIT %:    43.2391  MISS %:    56.7609   MPKI: 245.728
L1D LOAD      ACCESS:   13183220  HIT:    6792289  MISS:    6390931  HIT %:    51.5222  MISS %:    48.4778   MPKI: 127.819
L1D RFO       ACCESS:    1692806  HIT:    1692806  MISS:          0  HIT %:        100  MISS %:          0   MPKI: 0
L1D PREFETCH  ACCESS:    6769821  HIT:     874376  MISS:    5895445  HIT %:    12.9158  MISS %:    87.0842   MPKI: 117.909
L1D PREFETCH  REQUESTED:   13551330  ISSUED:   13549066  USEFUL:     447633  USELESS:    5447760
L1D USEFUL LOAD PREFETCHES:     447633 PREFETCH ISSUED TO LOWER LEVEL:    5896175  ACCURACY: 7.59192
L1D TIMELY PREFETCHES:     447633 LATE PREFETCHES: 720 DROPPED PREFETCHES: 0
L1D PREFETCHES SAME FILL-ORIGIN LEVEL: 5896175 DIFFERENT FILL-ORIGIN LEVEL: 0
L1D AVERAGE MISS LATENCY: 18723.5 cycles
L1D RQ	ACCESS:   18225118	FORWARD:          0	MERGED:    5007212	TO_CACHE:   13187148
L1D WQ	ACCESS:    2179076	FORWARD:      30758	MERGED:     486269	TO_CACHE:    1692807
L1D PQ	ACCESS:    6774533	FORWARD:          0	MERGED:          0	TO_CACHE:    6774533

L1D UNIQUE REGIONS ACCESSED: 0
L1D REGIONS CONFLICTS: 0
L1D Cross Page Prefetch Requests: 0
L1D Same Page Prefetch Requests: 7921074
L1D ROI Sum of L1D PQ occupancy: 269187607
L1D PREFETCHES PUSHED FROM L2C: 0
L1I TOTAL     ACCESS:   10548542  HIT:   10548542  MISS:          0  HIT %:        100  MISS %:          0   MPKI: 0
L1I LOAD      ACCESS:   10548542  HIT:   10548542  MISS:          0  HIT %:        100  MISS %:          0   MPKI: 0
L1I PREFETCH  REQUESTED:          0  ISSUED:          0  USEFUL:          0  USELESS:          0
L1I USEFUL LOAD PREFETCHES:          0 PREFETCH ISSUED TO LOWER LEVEL:          0  ACCURACY: -nan
L1I TIMELY PREFETCHES:          0 LATE PREFETCHES: 0 DROPPED PREFETCHES: 0
L1I PREFETCHES SAME FILL-ORIGIN LEVEL: 0 DIFFERENT FILL-ORIGIN LEVEL: 0
L1I AVERAGE MISS LATENCY: -nan cycles
L1I RQ	ACCESS:   12174474	FORWARD:          0	MERGED:    1625932	TO_CACHE:   10548542

BTB TOTAL     ACCESS:    4033855  HIT:    4033850  MISS:          5  HIT %:    99.9999  MISS %: 0.000123951   MPKI: 0.0001
BTB BRANCH_DIRECT_JUMP	ACCESS:          0  HIT:          0  MISS:          0
BTB BRANCH_INDIRECT	ACCESS:          0  HIT:          0  MISS:          0
BTB BRANCH_CONDITIONAL	ACCESS:    4033855  HIT:    4033850  MISS:          5
BTB BRANCH_DIRECT_CALL	ACCESS:          0  HIT:          0  MISS:          0
BTB BRANCH_INDIRECT_CALL	ACCESS:          0  HIT:          0  MISS:          0
BTB BRANCH_RETURN	ACCESS:          0  HIT:          0  MISS:          0
BTB BRANCH_OTHER ACCESS:          0  HIT:          0  MISS:          0

L2C TOTAL     ACCESS:   20756788  HIT:    7839107  MISS:   12917681  HIT %:    37.7665  MISS %:    62.2335   MPKI: 258.354
L2C LOAD      ACCESS:    6390212  HIT:     599816  MISS:    5790396  HIT %:    9.38648  MISS %:    90.6135   MPKI: 115.808
L2C DATA LOAD MPKI: 115.808
L2C INSTRUCTION LOAD MPKI: 0
L2C PREFETCH  ACCESS:    7007934  HIT:    1584003  MISS:    5423931  HIT %:     22.603  MISS %:     77.397   MPKI: 108.479
L2C DATA PREFETCH MPKI: 108.479
L2C INSTRUCTION PREFETCH MPKI: 0
L2C WRITEBACK ACCESS:      77156  HIT:      76849  MISS:        307  HIT %:    99.6021  MISS %:   0.397895   MPKI: 0.00614
L2C LOAD TRANSLATION ACCESS:    7276816  HIT:    5574153  MISS:    1702663  HIT %:    76.6015  MISS %:    23.3985   MPKI: 34.0533
L2C TRANSLATION FROM L1D PREFETCHER ACCESS:       4670  HIT:       4286  MISS:        384  HIT %:    91.7773  MISS %:     8.2227   MPKI: 0.00768
L2C PREFETCH  REQUESTED:    1206285  ISSUED:    1206273  USEFUL:     203830  USELESS:    5220123
L2C USEFUL LOAD PREFETCHES:     203830 PREFETCH ISSUED TO LOWER LEVEL:    5424043  ACCURACY: 3.7579
L2C TIMELY PREFETCHES:     203830 LATE PREFETCHES: 103 DROPPED PREFETCHES: 0
L2C PREFETCHES SAME FILL-ORIGIN LEVEL: 382528 DIFFERENT FILL-ORIGIN LEVEL: 0
L2C AVERAGE MISS LATENCY: 350.479 cycles
L2C RQ	ACCESS:   13671704	FORWARD:          0	MERGED:          0	TO_CACHE:   13671704
L2C WQ	ACCESS:      77156	FORWARD:          0	MERGED:          0	TO_CACHE:      77156
L2C PQ	ACCESS:    7102431	FORWARD:          0	MERGED:      76866	TO_CACHE:    7025565

L2C Instructions Evicting Data 0
L2C Translations Evicting Data 1432460
L2C Data Evicting Data 9781767
L2C Instructions Evicting Instructions 0
L2C Translations Evicting Instructions 0
L2C Data Evicting Instructions 0
L2C Instructions Evicting Translations 0
L2C Translations Evicting Translations 270587
L2C Data Evicting Translations 1432560
L2C Dense regions hint from L2: 0
PSCL5 TOTAL     ACCESS:    4476013  HIT:    4476013  MISS:          0  HIT %:        100  MISS %:          0   MPKI: 0
PSCL5 LOAD TRANSLATION ACCESS:    4473678  HIT:    4473678  MISS:          0  HIT %:        100  MISS %:          0   MPKI: 0
PSCL5 TRANSLATION FROM L1D PREFETCHER ACCESS:       2335  HIT:       2335  MISS:          0  HIT %:        100  MISS %:          0   MPKI: 0
PSCL5 PREFETCH  REQUESTED:          0  ISSUED:          0  USEFUL:          0  USELESS:          0
PSCL5 USEFUL LOAD PREFETCHES:          0 PREFETCH ISSUED TO LOWER LEVEL:          0  ACCURACY: -nan
PSCL5 TIMELY PREFETCHES:          0 LATE PREFETCHES: 0 DROPPED PREFETCHES: 0
PSCL5 PREFETCHES SAME FILL-ORIGIN LEVEL: 0 DIFFERENT FILL-ORIGIN LEVEL: 0

PSCL4 TOTAL     ACCESS:    4476013  HIT:    4476013  MISS:          0  HIT %:        100  MISS %:          0   MPKI: 0
PSCL4 LOAD TRANSLATION ACCESS:    4473678  HIT:    4473678  MISS:          0  HIT %:        100  MISS %:          0   MPKI: 0
PSCL4 TRANSLATION FROM L1D PREFETCHER ACCESS:       2335  HIT:       2335  MISS:          0  HIT %:        100  MISS %:          0   MPKI: 0
PSCL4 PREFETCH  REQUESTED:          0  ISSUED:          0  USEFUL:          0  USELESS:          0
PSCL4 USEFUL LOAD PREFETCHES:          0 PREFETCH ISSUED TO LOWER LEVEL:          0  ACCURACY: -nan
PSCL4 TIMELY PREFETCHES:          0 LATE PREFETCHES: 0 DROPPED PREFETCHES: 0
PSCL4 PREFETCHES SAME FILL-ORIGIN LEVEL: 0 DIFFERENT FILL-ORIGIN LEVEL: 0

PSCL3 TOTAL     ACCESS:    4476013  HIT:    4476013  MISS:          0  HIT %:        100  MISS %:          0   MPKI: 0
PSCL3 LOAD TRANSLATION ACCESS:    4473678  HIT:    4473678  MISS:          0  HIT %:        100  MISS %:          0   MPKI: 0
PSCL3 TRANSLATION FROM L1D PREFETCHER ACCESS:       2335  HIT:       2335  MISS:          0  HIT %:        100  MISS %:          0   MPKI: 0
PSCL3 PREFETCH  REQUESTED:          0  ISSUED:          0  USEFUL:          0  USELESS:          0
PSCL3 USEFUL LOAD PREFETCHES:          0 PREFETCH ISSUED TO LOWER LEVEL:          0  ACCURACY: -nan
PSCL3 TIMELY PREFETCHES:          0 LATE PREFETCHES: 0 DROPPED PREFETCHES: 0
PSCL3 PREFETCHES SAME FILL-ORIGIN LEVEL: 0 DIFFERENT FILL-ORIGIN LEVEL: 0

PSCL2 TOTAL     ACCESS:    4476013  HIT:    1670533  MISS:    2805480  HIT %:    37.3219  MISS %:    62.6781   MPKI: 56.1096
PSCL2 LOAD TRANSLATION ACCESS:    4476013  HIT:    1670533  MISS:    2805480  HIT %:    37.3219  MISS %:    62.6781   MPKI: 56.1096
PSCL2 PREFETCH  REQUESTED:          0  ISSUED:          0  USEFUL:          0  USELESS:          0
PSCL2 USEFUL LOAD PREFETCHES:          0 PREFETCH ISSUED TO LOWER LEVEL:          0  ACCURACY: -nan
PSCL2 TIMELY PREFETCHES:          0 LATE PREFETCHES: 0 DROPPED PREFETCHES: 0
PSCL2 PREFETCHES SAME FILL-ORIGIN LEVEL: 0 DIFFERENT FILL-ORIGIN LEVEL: 0

LLC TOTAL     ACCESS:   12994530  HIT:    2312320  MISS:   10682210  HIT %:    17.7946  MISS %:    82.2054   MPKI: 213.644
LLC LOAD      ACCESS:    5790293  HIT:     675983  MISS:    5114310  HIT %:    11.6744  MISS %:    88.3256   MPKI: 102.286
LLC PREFETCH  ACCESS:    5424034  HIT:     603005  MISS:    4821029  HIT %:    11.1173  MISS %:    88.8827   MPKI: 96.4206
LLC WRITEBACK ACCESS:      77156  HIT:      77144  MISS:         12  HIT %:    99.9844  MISS %:  0.0155529   MPKI: 0.00024
LLC LOAD TRANSLATION ACCESS:    1702663  HIT:     955862  MISS:     746801  HIT %:    56.1392  MISS %:    43.8608   MPKI: 14.936
LLC TRANSLATION FROM L1D PREFETCHER ACCESS:        384  HIT:        326  MISS:         58  HIT %:    84.8958  MISS %:    15.1042   MPKI: 0.00116
LLC PREFETCH  REQUESTED:          0  ISSUED:          0  USEFUL:     231972  USELESS:    4587664
LLC USEFUL LOAD PREFETCHES:     231972 PREFETCH ISSUED TO LOWER LEVEL:    4821038  ACCURACY: 4.81166
LLC TIMELY PREFETCHES:     231972 LATE PREFETCHES: 0 DROPPED PREFETCHES: 0
LLC PREFETCHES SAME FILL-ORIGIN LEVEL: 0 DIFFERENT FILL-ORIGIN LEVEL: 0
LLC AVERAGE MISS LATENCY: 387.275 cycles
LLC RQ	ACCESS:    7493347	FORWARD:          0	MERGED:          0	TO_CACHE:    7493347
LLC WQ	ACCESS:      77156	FORWARD:          0	MERGED:          0	TO_CACHE:      77156
LLC PQ	ACCESS:    5424043	FORWARD:          0	MERGED:          0	TO_CACHE:    5424043

LLC Dense regions hint to LLC: 0

RAW hits: 836786
Loads Generated: 19061905
Loads sent to L1D: 18225118
Stores Generated: 2179071
Stores sent to L1D: 2179076
Major fault: 0 Minor fault: 136580
Allocated PAGES: 136580

stream: 
stream:times selected: 7924680
stream:pref_filled: 6255523
stream:pref_useful: 56165
stream:pref_late: 1212
stream:misses: 2157440
stream:misses_by_poll: 0

CS: 
CS:times selected: 673834
CS:pref_filled: 521060
CS:pref_useful: 480246
CS:pref_late: 1298
CS:misses: 49299
CS:misses_by_poll: 527

CPLX: 
CPLX:times selected: 7027908
CPLX:pref_filled: 117602
CPLX:pref_useful: 1351
CPLX:pref_late: 16
CPLX:misses: 5437894
CPLX:misses_by_poll: 37

NL_L1: 
NL:times selected: 9922
NL:pref_filled: 7801
NL:pref_useful: 69
NL:pref_late: 6
NL:misses: 10400
NL:misses_by_poll: 0

total selections: 15636344
total_filled: 5895445
total_useful: 447633
total_late: 2582
total_polluted: 564
total_misses_after_warmup: 6394863
conflicts: 0
Degree Incremented Times: 62739
Degree Decremented Times: 129631

L1 IP Table Write Accesses: 13187152
L1 IP Table Read Accesses: 13187152
L1 RST Write Accesses: 6617738
L1 RST Read Accesses: 13235476
L1 CSPT Write Accesses: 6617738
L1 CSPT Read Accesses: 12496628
L1 RR Filter Tag Write Accesses: 6776797
L1 RR Filter Tag Read Accesses: 244249366
L1 IP Table Tag Write Accesses: 13187152
L1 IP Table Tag Read Accesses: 13187152
L1 RST Tag Write Accesses: 0
L1 RST Tag Read Accesses: 60237736
L1 RR Filter Write Accesses: 0
L1 RR Filter Read Accesses: 8197333
test: 5287031
L2 IP Table Read Accesses: 24363478
L2 IP Table Write Accesses: 17973259
L2 IP Table Tag Read Accesses: 12181739
L2 IP Table Tag Write Accesses: 12181739

DRAM Statistics
 CHANNEL 0
 RQ ROW_BUFFER_HIT:     323324  ROW_BUFFER_MISS:   10358874
 DBUS_CONGESTED:    8603911
 WQ ROW_BUFFER_HIT:      25015  ROW_BUFFER_MISS:      52086  FULL:          0

 AVG_CONGESTED_CYCLE: 34
 All warmup complete: 2
Channel 0 Bank busy for read cycles: 0
Channel 0 Bank busy for write cycles: 0
Channel 0
Rank 0
0banks busy for read cycles: 496864
0banks busy for write cycles: 6
1banks busy for read cycles: 56116197
1banks busy for write cycles: 295043
2banks busy for read cycles: 77939133
2banks busy for write cycles: 293983
3banks busy for read cycles: 88785358
3banks busy for write cycles: 291751
4banks busy for read cycles: 90352854
4banks busy for write cycles: 287197
5banks busy for read cycles: 87681870
5banks busy for write cycles: 292626
6banks busy for read cycles: 76521393
6banks busy for write cycles: 307128
7banks busy for read cycles: 49335701
7banks busy for write cycles: 512744
8banks busy for read cycles: 16188525
8banks busy for write cycles: 20994573

CPU 0 Branch Prediction Accuracy: 89.4612% MPKI: 13.0953 Average ROB Occupancy at Mispredict: 99.4309
Branch types
NOT_BRANCH: 43786789 87.5736%
BRANCH_DIRECT_JUMP: 0 0%
BRANCH_INDIRECT: 0 0%
BRANCH_CONDITIONAL: 6212924 12.4258%
BRANCH_DIRECT_CALL: 0 0%
BRANCH_INDIRECT_CALL: 0 0%
BRANCH_RETURN: 0 0%
BRANCH_OTHER: 0 0%

@sumon_overall_L1D    447633       720   5447760   5895445  13549066  13551330
@Sumon_Early_by_class_L1D     46700    399743      1190         0
@Sumon_Late_by_class_L1D       422       259        10         0

@Sumon_Early_by_cycle_L1D       786       982      2039      2742      3505     35701     73822    107215    187606     29592      3252       391
@Sumon_Late_by_cycle_L1D       336       190       130        45        14         5         0         0         0         0         0         0
@Sumon_Early_stream_L1D       268       281       467       476       491      3269      5775      9707     11047     11522      3016       381
@Sumon_Early_CS_L1D       512       696      1562      2253      3002     32357     67943     97310    176279     17695       134         0
@Sumon_Early_CPLX_L1D         6         5        10        13        12        75       104       198       280       375       102        10
@Sumon_Late_stream_L1D       198        81        86        38        14         5         0         0         0         0         0         0
@Sumon_Late_CS_L1D       103       108        42         6         0         0         0         0         0         0         0         0
@Sumon_Late_CPLX_L1D         6         1         2         1         0         0         0         0         0         0         0         0
@sumon_overall_L2C    203830       103   5220123   5424315   1206273   1206285
@Sumon_Early_by_class_L2C    165952     34892      2986         0
@Sumon_Late_by_class_L2C         0       103         0         0

@Sumon_Early_by_cycle_L2C        28        52        74        97        97       540       788      1945      7648     36546     50214    105801
@Sumon_Late_by_cycle_L2C        24        41        25        10         2         1         0         0         0         0         0         0
@Sumon_Early_stream_L2C         0         0         0         0         0         0        36       940      5796     25927     38841     94412
@Sumon_Early_CS_L2C        28        52        74        97        97       540       752       995      1795     10297     10773      9392
@Sumon_Early_CPLX_L2C         0         0         0         0         0         0         0        10        57       322       600      1997
@Sumon_Late_stream_L2C         0         0         0         0         0         0         0         0         0         0         0         0
@Sumon_Late_CS_L2C        24        41        25        10         2         1         0         0         0         0         0         0
@Sumon_Late_CPLX_L2C         0         0         0         0         0         0         0         0         0         0         0         0
DRAM PAGES: 1048576
Allocated PAGES: 136580
