
*** ChampSim Multicore Out-of-Order Simulator ***

Warmup Instructions: 10000000
Simulation Instructions: 50000000
Number of CPUs: 1
LLC sets: 2048
LLC ways: 16
Off-chip DRAM Size: 4096 MB Channels: 1 Width: 64-bit Data Rate: 6400 MT/s
CPU 0 runs traces/clientserver/server_021.champsimtrace.xz
.xz
CPU 0 Bimodal branch predictor
BTB has LRU replacement policy
ITLB has LRU replacement policy
DTLB has LRU replacement policy
STLB has LRU replacement policy
L1I has LRU replacement policy
IP Table Entries: 256
L1D has LRU replacement policy
IP_Table L2 entries: 256
L2C has LRU replacement policy
Initialize Hawkeye state
Heartbeat CPU 0 instructions: 10000000 cycles: 3154802 heartbeat IPC: 3.16977 cumulative IPC: 3.16977 (Simulation time: 0 hr 22 min 15 sec) 

Warmup complete CPU 0 instructions: 10000004 cycles: 3154803 (Simulation time: 0 hr 22 min 15 sec) 

Heartbeat CPU 0 instructions: 20000000 cycles: 24125581 heartbeat IPC: 0.476854 cumulative IPC: 0.476854 (Simulation time: 0 hr 48 min 17 sec) 
Heartbeat CPU 0 instructions: 30000003 cycles: 45033641 heartbeat IPC: 0.478285 cumulative IPC: 0.477568 (Simulation time: 1 hr 14 min 0 sec) 
Heartbeat CPU 0 instructions: 40000000 cycles: 65900781 heartbeat IPC: 0.479222 cumulative IPC: 0.478118 (Simulation time: 1 hr 36 min 55 sec) 
Heartbeat CPU 0 instructions: 50000002 cycles: 86874874 heartbeat IPC: 0.476779 cumulative IPC: 0.477783 (Simulation time: 1 hr 50 min 13 sec) 
Heartbeat CPU 0 instructions: 60000001 cycles: 107752979 heartbeat IPC: 0.478971 cumulative IPC: 0.47802 (Simulation time: 1 hr 56 min 1 sec) 
Finished CPU 0 instructions: 50000001 cycles: 104598177 cumulative IPC: 0.47802 (Simulation time: 1 hr 56 min 1 sec) 

ChampSim completed all CPUs

Region of Interest Statistics

CPU 0 cumulative IPC: 0.47802 instructions: 50000001 cycles: 104598177
ITLB TOTAL     ACCESS:    8948205  HIT:    8565916  MISS:     382289  HIT %:    95.7278  MISS %:    4.27224   MPKI: 7.64578
ITLB LOAD TRANSLATION ACCESS:    8948205  HIT:    8565916  MISS:     382289  HIT %:    95.7278  MISS %:    4.27224   MPKI: 7.64578
ITLB PREFETCH  REQUESTED:          0  ISSUED:          0  USEFUL:          0  USELESS:          0
ITLB USEFUL LOAD PREFETCHES:          0 PREFETCH ISSUED TO LOWER LEVEL:          0  ACCURACY: -nan
ITLB TIMELY PREFETCHES:          0 LATE PREFETCHES: 0 DROPPED PREFETCHES: 0
ITLB PREFETCHES SAME FILL-ORIGIN LEVEL: 0 DIFFERENT FILL-ORIGIN LEVEL: 0
ITLB AVERAGE MISS LATENCY: 9.15409 cycles
ITLB RQ	ACCESS:   10546884	FORWARD:          0	MERGED:    1475971	TO_CACHE:    9070913

DTLB TOTAL     ACCESS:   11842819  HIT:   11441888  MISS:     400931  HIT %:    96.6146  MISS %:    3.38544   MPKI: 8.01862
DTLB LOAD TRANSLATION ACCESS:   11842819  HIT:   11441888  MISS:     400931  HIT %:    96.6146  MISS %:    3.38544   MPKI: 8.01862
DTLB PREFETCH  REQUESTED:          0  ISSUED:          0  USEFUL:          0  USELESS:          0
DTLB USEFUL LOAD PREFETCHES:          0 PREFETCH ISSUED TO LOWER LEVEL:          0  ACCURACY: -nan
DTLB TIMELY PREFETCHES:          0 LATE PREFETCHES: 0 DROPPED PREFETCHES: 0
DTLB PREFETCHES SAME FILL-ORIGIN LEVEL: 0 DIFFERENT FILL-ORIGIN LEVEL: 0
DTLB AVERAGE MISS LATENCY: 15.7724 cycles
DTLB RQ	ACCESS:   16871111	FORWARD:          0	MERGED:    4956762	TO_CACHE:   11914349

STLB TOTAL     ACCESS:    1449134  HIT:    1429306  MISS:      19828  HIT %:    98.6317  MISS %:    1.36827   MPKI: 0.39656
STLB LOAD TRANSLATION ACCESS:     783220  HIT:     763392  MISS:      19828  HIT %:    97.4684  MISS %:     2.5316   MPKI: 0.39656
STLB TRANSLATION FROM L1D PREFETCHER ACCESS:     665914  HIT:     665914  MISS:          0  HIT %:        100  MISS %:          0   MPKI: 0
STLB PREFETCH  REQUESTED:          0  ISSUED:          0  USEFUL:          0  USELESS:          0
STLB USEFUL LOAD PREFETCHES:          0 PREFETCH ISSUED TO LOWER LEVEL:          0  ACCURACY: -nan
STLB TIMELY PREFETCHES:          0 LATE PREFETCHES: 0 DROPPED PREFETCHES: 0
STLB PREFETCHES SAME FILL-ORIGIN LEVEL: 0 DIFFERENT FILL-ORIGIN LEVEL: 0
STLB AVERAGE MISS LATENCY: 139.344 cycles
STLB RQ	ACCESS:    2000737	FORWARD:          0	MERGED:     551603	TO_CACHE:    1449134

STLB Hit, L1D data hit: 0
STLB Hit, L2C data hit: 0
STLB Hit, LLC data hit: 0
STLB Hit, LLC data miss: 0
STLB STLB hints to L2: 0
L1D TOTAL     ACCESS:   15632972  HIT:   13488579  MISS:    2144393  HIT %:    86.2829  MISS %:    13.7171   MPKI: 42.8879
L1D LOAD      ACCESS:    8025594  HIT:    7495089  MISS:     530505  HIT %:    93.3898  MISS %:    6.61016   MPKI: 10.6101
L1D RFO       ACCESS:    6404510  HIT:    5422728  MISS:     981782  HIT %:    84.6705  MISS %:    15.3295   MPKI: 19.6356
L1D PREFETCH  ACCESS:    1202868  HIT:     570762  MISS:     632106  HIT %:    47.4501  MISS %:    52.5499   MPKI: 12.6421
L1D PREFETCH  REQUESTED:    2501128  ISSUED:    2435115  USEFUL:     329516  USELESS:     302545
L1D USEFUL LOAD PREFETCHES:     329516 PREFETCH ISSUED TO LOWER LEVEL:     632124  ACCURACY: 52.1284
L1D TIMELY PREFETCHES:     329516 LATE PREFETCHES: 45093 DROPPED PREFETCHES: 0
L1D PREFETCHES SAME FILL-ORIGIN LEVEL: 632124 DIFFERENT FILL-ORIGIN LEVEL: 0
L1D AVERAGE MISS LATENCY: 501.96 cycles
L1D RQ	ACCESS:   11592063	FORWARD:          0	MERGED:    3363015	TO_CACHE:    8101302
L1D WQ	ACCESS:    8825676	FORWARD:     127799	MERGED:      55867	TO_CACHE:    8769809
L1D PQ	ACCESS:    1217598	FORWARD:          0	MERGED:         28	TO_CACHE:    1217517

L1D UNIQUE REGIONS ACCESSED: 0
L1D REGIONS CONFLICTS: 0
L1D Cross Page Prefetch Requests: 0
L1D Same Page Prefetch Requests: 1459378
L1D ROI Sum of L1D PQ occupancy: 19860894
L1D PREFETCHES PUSHED FROM L2C: 0
L1I TOTAL     ACCESS:    9814960  HIT:    7377372  MISS:    2437588  HIT %:    75.1646  MISS %:    24.8354   MPKI: 48.7518
L1I LOAD      ACCESS:    9814960  HIT:    7377372  MISS:    2437588  HIT %:    75.1646  MISS %:    24.8354   MPKI: 48.7518
L1I PREFETCH  REQUESTED:          0  ISSUED:          0  USEFUL:          0  USELESS:          0
L1I USEFUL LOAD PREFETCHES:          0 PREFETCH ISSUED TO LOWER LEVEL:          0  ACCURACY: -nan
L1I TIMELY PREFETCHES:          0 LATE PREFETCHES: 0 DROPPED PREFETCHES: 0
L1I PREFETCHES SAME FILL-ORIGIN LEVEL: 0 DIFFERENT FILL-ORIGIN LEVEL: 0
L1I AVERAGE MISS LATENCY: 16.2463 cycles
L1I RQ	ACCESS:   14509144	FORWARD:          0	MERGED:    3962260	TO_CACHE:   10546884

BTB TOTAL     ACCESS:    5338422  HIT:    5079378  MISS:     259044  HIT %:    95.1476  MISS %:    4.85245   MPKI: 5.18088
BTB BRANCH_DIRECT_JUMP	ACCESS:     443771  HIT:     441817  MISS:       1954
BTB BRANCH_INDIRECT	ACCESS:      50297  HIT:      50199  MISS:         98
BTB BRANCH_CONDITIONAL	ACCESS:    3011244  HIT:    3005231  MISS:       6013
BTB BRANCH_DIRECT_CALL	ACCESS:     756237  HIT:     752212  MISS:       4025
BTB BRANCH_INDIRECT_CALL	ACCESS:     160309  HIT:     130600  MISS:      29709
BTB BRANCH_RETURN	ACCESS:     916564  HIT:     699319  MISS:     217245
BTB BRANCH_OTHER ACCESS:          0  HIT:          0  MISS:          0

L2C TOTAL     ACCESS:    6106270  HIT:    4162106  MISS:    1944164  HIT %:    68.1612  MISS %:    31.8388   MPKI: 38.8833
L2C LOAD      ACCESS:    2968063  HIT:    2548708  MISS:     419355  HIT %:    85.8711  MISS %:    14.1289   MPKI: 8.3871
L2C DATA LOAD MPKI: 5.48418
L2C INSTRUCTION LOAD MPKI: 2.90292
L2C RFO       ACCESS:     981754  HIT:      33034  MISS:     948720  HIT %:    3.36479  MISS %:    96.6352   MPKI: 18.9744
L2C PREFETCH  ACCESS:     967425  HIT:     401106  MISS:     566319  HIT %:    41.4612  MISS %:    58.5388   MPKI: 11.3264
L2C DATA PREFETCH MPKI: 11.3264
L2C INSTRUCTION PREFETCH MPKI: 0
L2C WRITEBACK ACCESS:    1167708  HIT:    1166684  MISS:       1024  HIT %:    99.9123  MISS %:  0.0876932   MPKI: 0.02048
L2C LOAD TRANSLATION ACCESS:      21320  HIT:      12574  MISS:       8746  HIT %:    58.9775  MISS %:    41.0225   MPKI: 0.17492
L2C PREFETCH  REQUESTED:     374378  ISSUED:     374377  USEFUL:      62657  USELESS:     503248
L2C USEFUL LOAD PREFETCHES:      62657 PREFETCH ISSUED TO LOWER LEVEL:     568814  ACCURACY: 11.0154
L2C TIMELY PREFETCHES:      62657 LATE PREFETCHES: 2489 DROPPED PREFETCHES: 0
L2C PREFETCHES SAME FILL-ORIGIN LEVEL: 145005 DIFFERENT FILL-ORIGIN LEVEL: 0
L2C AVERAGE MISS LATENCY: 133.144 cycles
L2C RQ	ACCESS:    3971183	FORWARD:          0	MERGED:          0	TO_CACHE:    3971137
L2C WQ	ACCESS:    1167708	FORWARD:         53	MERGED:          0	TO_CACHE:    1167708
L2C PQ	ACCESS:    1006501	FORWARD:          0	MERGED:      16643	TO_CACHE:     989851

L2C Instructions Evicting Data 135097
L2C Translations Evicting Data 8042
L2C Data Evicting Data 1645839
L2C Instructions Evicting Instructions 9319
L2C Translations Evicting Instructions 654
L2C Data Evicting Instructions 135421
L2C Instructions Evicting Translations 730
L2C Translations Evicting Translations 50
L2C Data Evicting Translations 7988
L2C Dense regions hint from L2: 0
PSCL5 TOTAL     ACCESS:      19828  HIT:      19828  MISS:          0  HIT %:        100  MISS %:          0   MPKI: 0
PSCL5 LOAD TRANSLATION ACCESS:      19828  HIT:      19828  MISS:          0  HIT %:        100  MISS %:          0   MPKI: 0
PSCL5 PREFETCH  REQUESTED:          0  ISSUED:          0  USEFUL:          0  USELESS:          0
PSCL5 USEFUL LOAD PREFETCHES:          0 PREFETCH ISSUED TO LOWER LEVEL:          0  ACCURACY: -nan
PSCL5 TIMELY PREFETCHES:          0 LATE PREFETCHES: 0 DROPPED PREFETCHES: 0
PSCL5 PREFETCHES SAME FILL-ORIGIN LEVEL: 0 DIFFERENT FILL-ORIGIN LEVEL: 0

PSCL4 TOTAL     ACCESS:      19291  HIT:      19243  MISS:         48  HIT %:    99.7512  MISS %:   0.248821   MPKI: 0.00096
PSCL4 LOAD TRANSLATION ACCESS:      19291  HIT:      19243  MISS:         48  HIT %:    99.7512  MISS %:   0.248821   MPKI: 0.00096
PSCL4 PREFETCH  REQUESTED:          0  ISSUED:          0  USEFUL:          0  USELESS:          0
PSCL4 USEFUL LOAD PREFETCHES:          0 PREFETCH ISSUED TO LOWER LEVEL:          0  ACCURACY: -nan
PSCL4 TIMELY PREFETCHES:          0 LATE PREFETCHES: 0 DROPPED PREFETCHES: 0
PSCL4 PREFETCHES SAME FILL-ORIGIN LEVEL: 0 DIFFERENT FILL-ORIGIN LEVEL: 0

PSCL3 TOTAL     ACCESS:      19525  HIT:      19477  MISS:         48  HIT %:    99.7542  MISS %:   0.245839   MPKI: 0.00096
PSCL3 LOAD TRANSLATION ACCESS:      19525  HIT:      19477  MISS:         48  HIT %:    99.7542  MISS %:   0.245839   MPKI: 0.00096
PSCL3 PREFETCH  REQUESTED:          0  ISSUED:          0  USEFUL:          0  USELESS:          0
PSCL3 USEFUL LOAD PREFETCHES:          0 PREFETCH ISSUED TO LOWER LEVEL:          0  ACCURACY: -nan
PSCL3 TIMELY PREFETCHES:          0 LATE PREFETCHES: 0 DROPPED PREFETCHES: 0
PSCL3 PREFETCHES SAME FILL-ORIGIN LEVEL: 0 DIFFERENT FILL-ORIGIN LEVEL: 0

PSCL2 TOTAL     ACCESS:      19828  HIT:      18407  MISS:       1421  HIT %:    92.8334  MISS %:    7.16663   MPKI: 0.02842
PSCL2 LOAD TRANSLATION ACCESS:      19828  HIT:      18407  MISS:       1421  HIT %:    92.8334  MISS %:    7.16663   MPKI: 0.02842
PSCL2 PREFETCH  REQUESTED:          0  ISSUED:          0  USEFUL:          0  USELESS:          0
PSCL2 USEFUL LOAD PREFETCHES:          0 PREFETCH ISSUED TO LOWER LEVEL:          0  ACCURACY: -nan
PSCL2 TIMELY PREFETCHES:          0 LATE PREFETCHES: 0 DROPPED PREFETCHES: 0
PSCL2 PREFETCHES SAME FILL-ORIGIN LEVEL: 0 DIFFERENT FILL-ORIGIN LEVEL: 0

LLC TOTAL     ACCESS:    3050458  HIT:    1499308  MISS:    1551150  HIT %:    49.1503  MISS %:    50.8497   MPKI: 31.023
LLC LOAD      ACCESS:     416988  HIT:     382214  MISS:      34774  HIT %:    91.6607  MISS %:    8.33933   MPKI: 0.69548
LLC RFO       ACCESS:     948596  HIT:     310528  MISS:     638068  HIT %:    32.7355  MISS %:    67.2645   MPKI: 12.7614
LLC PREFETCH  ACCESS:     568807  HIT:     296304  MISS:     272503  HIT %:    52.0922  MISS %:    47.9078   MPKI: 5.45006
LLC WRITEBACK ACCESS:    1107321  HIT:     506147  MISS:     601174  HIT %:    45.7091  MISS %:    54.2909   MPKI: 12.0235
LLC LOAD TRANSLATION ACCESS:       8746  HIT:       4115  MISS:       4631  HIT %:    47.0501  MISS %:    52.9499   MPKI: 0.09262
LLC PREFETCH  REQUESTED:          0  ISSUED:          0  USEFUL:       3928  USELESS:     267479
LLC USEFUL LOAD PREFETCHES:       3928 PREFETCH ISSUED TO LOWER LEVEL:     272509  ACCURACY: 1.44142
LLC TIMELY PREFETCHES:       3928 LATE PREFETCHES: 0 DROPPED PREFETCHES: 0
LLC PREFETCHES SAME FILL-ORIGIN LEVEL: 0 DIFFERENT FILL-ORIGIN LEVEL: 0
LLC AVERAGE MISS LATENCY: 127.605 cycles
LLC RQ	ACCESS:    1374332	FORWARD:          0	MERGED:          0	TO_CACHE:    1374330
LLC WQ	ACCESS:    1107321	FORWARD:          3	MERGED:          0	TO_CACHE:    1107321
LLC PQ	ACCESS:     568814	FORWARD:          0	MERGED:          0	TO_CACHE:     568813

LLC Dense regions hint to LLC: 0

RAW hits: 827769
Loads Generated: 12419836
Loads sent to L1D: 11592063
Stores Generated: 8825673
Stores sent to L1D: 8825676
Major fault: 0 Minor fault: 14275
Allocated PAGES: 14275

stream: 
stream:times selected: 2341074
stream:pref_filled: 725421
stream:pref_useful: 389900
stream:pref_late: 13662
stream:misses: 16254
stream:misses_by_poll: 0

CS: 
CS:times selected: 2057293
CS:pref_filled: 5505
CS:pref_useful: 4982
CS:pref_late: 561
CS:misses: 29386
CS:misses_by_poll: 10

CPLX: 
CPLX:times selected: 279341
CPLX:pref_filled: 22980
CPLX:pref_useful: 1523
CPLX:pref_late: 193
CPLX:misses: 59259
CPLX:misses_by_poll: 14

NL_L1: 
NL:times selected: 1012
NL:pref_filled: 356
NL:pref_useful: 17
NL:pref_late: 4
NL:misses: 482
NL:misses_by_poll: 0

total selections: 4678720
total_filled: 632106
total_useful: 329516
total_late: 14975
total_polluted: 24
total_misses_after_warmup: 606214
conflicts: 2721320
Degree Incremented Times: 53968
Degree Decremented Times: 116301

L1 IP Table Write Accesses: 5211883
L1 IP Table Read Accesses: 2490563
L1 RST Write Accesses: 1942221
L1 RST Read Accesses: 3884442
L1 CSPT Write Accesses: 1942221
L1 CSPT Read Accesses: 2173411
L1 RR Filter Tag Write Accesses: 1283611
L1 RR Filter Tag Read Accesses: 470990599
L1 IP Table Tag Write Accesses: 8101303
L1 IP Table Tag Read Accesses: 8101303
L1 RST Tag Write Accesses: 0
L1 RST Tag Read Accesses: 17555809
L1 RR Filter Write Accesses: 0
L1 RR Filter Read Accesses: 16275136
test: 135493
L2 IP Table Read Accesses: 1941633
L2 IP Table Write Accesses: 2073157
L2 IP Table Tag Read Accesses: 1155943
L2 IP Table Tag Write Accesses: 1155943

DRAM Statistics
 CHANNEL 0
 RQ ROW_BUFFER_HIT:     496086  ROW_BUFFER_MISS:     453884
 DBUS_CONGESTED:        937
 WQ ROW_BUFFER_HIT:     250138  ROW_BUFFER_MISS:     410635  FULL:      17348

 AVG_CONGESTED_CYCLE: 3
 All warmup complete: 2
Channel 0 Bank busy for read cycles: 0
Channel 0 Bank busy for write cycles: 0
Channel 0
Rank 0
0banks busy for read cycles: 49896901
0banks busy for write cycles: 70249
1banks busy for read cycles: 11696405
1banks busy for write cycles: 8411444
2banks busy for read cycles: 7551616
2banks busy for write cycles: 3616164
3banks busy for read cycles: 2274864
3banks busy for write cycles: 1755295
4banks busy for read cycles: 2047747
4banks busy for write cycles: 1036809
5banks busy for read cycles: 732100
5banks busy for write cycles: 788495
6banks busy for read cycles: 975036
6banks busy for write cycles: 730005
7banks busy for read cycles: 1453835
7banks busy for write cycles: 1177641
8banks busy for read cycles: 4120444
8banks busy for write cycles: 6263128

CPU 0 Branch Prediction Accuracy: 96.6284% MPKI: 5.54662 Average ROB Occupancy at Mispredict: 43.7709
Branch types
NOT_BRANCH: 41774097 83.5482%
BRANCH_DIRECT_JUMP: 443771 0.887542%
BRANCH_INDIRECT: 50297 0.100594%
BRANCH_CONDITIONAL: 5898380 11.7968%
BRANCH_DIRECT_CALL: 756237 1.51247%
BRANCH_INDIRECT_CALL: 160309 0.320618%
BRANCH_RETURN: 916564 1.83313%
BRANCH_OTHER: 0 0%

@sumon_overall_L1D    329516     45093     45093    302545    632106   2435115   2501128
@Sumon_Early_by_class_L1D    322582      4222      1302         4
@Sumon_Late_by_class_L1D     13003       553       169         4

@Sumon_Early_by_cycle_L1D     56250    122897    136774      1102       359      1777      1053       805      5832      1896       481       290
@Sumon_Late_by_cycle_L1D      3845      3025      1139      4097      2151        25
@Sumon_Early_stream_L1D     54354    119356    136194       907       277      1477       912       775      5728      1839       476       287
@Sumon_Early_CS_L1D      1416      2551       246         2         6         0         0         0         1         0         0         0
@Sumon_Early_CPLX_L1D       235        71       115       188        70       292       141        30        98        55         4         3
@Sumon_Late_stream_L1D      3686      2708      1056      3532      1996        25
@Sumon_Late_CS_L1D       116       182        46       161        48         0
@Sumon_Late_CPLX_L1D        37        24        10         3        95         0
@sumon_overall_L2C     62657      2489         0    503248    566319    374377    374378
@Sumon_Early_by_class_L2C      6883        32       431         0
@Sumon_Late_by_class_L2C         0         0         0         0

@Sumon_Early_by_cycle_L2C      7369      8137      6589      1016      2742     11834      3186      1930      4935      1942      1773     11204
@Sumon_Late_by_cycle_L2C       240       944       658       139       508         0
@Sumon_Early_stream_L2C         0         0         0         0         0        19       648       802       302       656       658      3798
@Sumon_Early_CS_L2C         0         2         0         0         0         0         0         0        23         7         0         0
@Sumon_Early_CPLX_L2C         0         0         0         0         0         0        58       114         3        10        15       231
@Sumon_Late_stream_L2C         0         0         0         0         0         0
@Sumon_Late_CS_L2C         0         0         0         0         0         0
@Sumon_Late_CPLX_L2C         0         0         0         0         0         0
DRAM PAGES: 1048576
Allocated PAGES: 14275
