
*** ChampSim Multicore Out-of-Order Simulator ***

Warmup Instructions: 10000000
Simulation Instructions: 50000000
Number of CPUs: 1
LLC sets: 2048
LLC ways: 16
Off-chip DRAM Size: 4096 MB Channels: 1 Width: 64-bit Data Rate: 6400 MT/s
CPU 0 runs traces/clientserver/server_035.champsimtrace.xz
.xz
CPU 0 Bimodal branch predictor
BTB has LRU replacement policy
ITLB has LRU replacement policy
DTLB has LRU replacement policy
STLB has LRU replacement policy
L1I has LRU replacement policy
IP Table Entries: 256
L1D has LRU replacement policy
IP_Table L2 entries: 256
L2C has LRU replacement policy
Initialize Hawkeye state
Heartbeat CPU 0 instructions: 10000001 cycles: 2768998 heartbeat IPC: 3.61142 cumulative IPC: 3.61142 (Simulation time: 0 hr 20 min 5 sec) 

Warmup complete CPU 0 instructions: 10000001 cycles: 2768998 (Simulation time: 0 hr 20 min 5 sec) 

Heartbeat CPU 0 instructions: 20000000 cycles: 24419456 heartbeat IPC: 0.461884 cumulative IPC: 0.461884 (Simulation time: 0 hr 38 min 55 sec) 
Heartbeat CPU 0 instructions: 30000000 cycles: 45327647 heartbeat IPC: 0.478281 cumulative IPC: 0.46994 (Simulation time: 0 hr 57 min 13 sec) 
Heartbeat CPU 0 instructions: 40000000 cycles: 66819502 heartbeat IPC: 0.465293 cumulative IPC: 0.46838 (Simulation time: 1 hr 15 min 54 sec) 
Heartbeat CPU 0 instructions: 50000000 cycles: 87577722 heartbeat IPC: 0.481737 cumulative IPC: 0.47165 (Simulation time: 1 hr 32 min 23 sec) 
Heartbeat CPU 0 instructions: 60000001 cycles: 108708125 heartbeat IPC: 0.473252 cumulative IPC: 0.471969 (Simulation time: 1 hr 45 min 55 sec) 
Finished CPU 0 instructions: 50000000 cycles: 105939127 cumulative IPC: 0.471969 (Simulation time: 1 hr 45 min 55 sec) 

ChampSim completed all CPUs

Region of Interest Statistics

CPU 0 cumulative IPC: 0.471969 instructions: 50000000 cycles: 105939127
ITLB TOTAL     ACCESS:    8918372  HIT:    8414708  MISS:     503664  HIT %:    94.3525  MISS %:    5.64749   MPKI: 10.0733
ITLB LOAD TRANSLATION ACCESS:    8918372  HIT:    8414708  MISS:     503664  HIT %:    94.3525  MISS %:    5.64749   MPKI: 10.0733
ITLB PREFETCH  REQUESTED:          0  ISSUED:          0  USEFUL:          0  USELESS:          0
ITLB USEFUL LOAD PREFETCHES:          0 PREFETCH ISSUED TO LOWER LEVEL:          0  ACCURACY: -nan
ITLB TIMELY PREFETCHES:          0 LATE PREFETCHES: 0 DROPPED PREFETCHES: 0
ITLB PREFETCHES SAME FILL-ORIGIN LEVEL: 0 DIFFERENT FILL-ORIGIN LEVEL: 0
ITLB AVERAGE MISS LATENCY: 9.10074 cycles
ITLB RQ	ACCESS:   10582010	FORWARD:          0	MERGED:    1540016	TO_CACHE:    9041994

DTLB TOTAL     ACCESS:   10610196  HIT:   10160213  MISS:     449983  HIT %:     95.759  MISS %:    4.24104   MPKI: 8.99966
DTLB LOAD TRANSLATION ACCESS:   10610196  HIT:   10160213  MISS:     449983  HIT %:     95.759  MISS %:    4.24104   MPKI: 8.99966
DTLB PREFETCH  REQUESTED:          0  ISSUED:          0  USEFUL:          0  USELESS:          0
DTLB USEFUL LOAD PREFETCHES:          0 PREFETCH ISSUED TO LOWER LEVEL:          0  ACCURACY: -nan
DTLB TIMELY PREFETCHES:          0 LATE PREFETCHES: 0 DROPPED PREFETCHES: 0
DTLB PREFETCHES SAME FILL-ORIGIN LEVEL: 0 DIFFERENT FILL-ORIGIN LEVEL: 0
DTLB AVERAGE MISS LATENCY: 11.3784 cycles
DTLB RQ	ACCESS:   14206125	FORWARD:          0	MERGED:    3584242	TO_CACHE:   10621883

STLB TOTAL     ACCESS:    1203715  HIT:    1194770  MISS:       8945  HIT %:    99.2569  MISS %:   0.743116   MPKI: 0.1789
STLB LOAD TRANSLATION ACCESS:     953647  HIT:     944702  MISS:       8945  HIT %:     99.062  MISS %:   0.937978   MPKI: 0.1789
STLB TRANSLATION FROM L1D PREFETCHER ACCESS:     250068  HIT:     250068  MISS:          0  HIT %:        100  MISS %:          0   MPKI: 0
STLB PREFETCH  REQUESTED:          0  ISSUED:          0  USEFUL:          0  USELESS:          0
STLB USEFUL LOAD PREFETCHES:          0 PREFETCH ISSUED TO LOWER LEVEL:          0  ACCURACY: -nan
STLB TIMELY PREFETCHES:          0 LATE PREFETCHES: 0 DROPPED PREFETCHES: 0
STLB PREFETCHES SAME FILL-ORIGIN LEVEL: 0 DIFFERENT FILL-ORIGIN LEVEL: 0
STLB AVERAGE MISS LATENCY: 122.835 cycles
STLB RQ	ACCESS:    1323292	FORWARD:          0	MERGED:     119577	TO_CACHE:    1203715

STLB Hit, L1D data hit: 0
STLB Hit, L2C data hit: 0
STLB Hit, LLC data hit: 0
STLB Hit, LLC data miss: 0
STLB STLB hints to L2: 0
L1D TOTAL     ACCESS:   14416979  HIT:   13477841  MISS:     939138  HIT %:    93.4859  MISS %:    6.51411   MPKI: 18.7828
L1D LOAD      ACCESS:    7751750  HIT:    7119087  MISS:     632663  HIT %:    91.8384  MISS %:    8.16155   MPKI: 12.6533
L1D RFO       ACCESS:    6308848  HIT:    6192525  MISS:     116323  HIT %:    98.1562  MISS %:    1.84381   MPKI: 2.32646
L1D PREFETCH  ACCESS:     356381  HIT:     166229  MISS:     190152  HIT %:    46.6436  MISS %:    53.3564   MPKI: 3.80304
L1D PREFETCH  REQUESTED:     740234  ISSUED:     739788  USEFUL:      26602  USELESS:     163557
L1D USEFUL LOAD PREFETCHES:      26602 PREFETCH ISSUED TO LOWER LEVEL:     190578  ACCURACY: 13.9586
L1D TIMELY PREFETCHES:      26602 LATE PREFETCHES: 2627 DROPPED PREFETCHES: 0
L1D PREFETCHES SAME FILL-ORIGIN LEVEL: 190578 DIFFERENT FILL-ORIGIN LEVEL: 0
L1D AVERAGE MISS LATENCY: 23203.2 cycles
L1D RQ	ACCESS:   11113084	FORWARD:          0	MERGED:    3180463	TO_CACHE:    7783159
L1D WQ	ACCESS:    6513311	FORWARD:     149960	MERGED:      90345	TO_CACHE:    6422966
L1D PQ	ACCESS:     370143	FORWARD:          0	MERGED:          0	TO_CACHE:     369645

L1D UNIQUE REGIONS ACCESSED: 0
L1D REGIONS CONFLICTS: 0
L1D Cross Page Prefetch Requests: 0
L1D Same Page Prefetch Requests: 427562
L1D ROI Sum of L1D PQ occupancy: 6024261
L1D PREFETCHES PUSHED FROM L2C: 0
L1I TOTAL     ACCESS:    9851215  HIT:    6511708  MISS:    3339507  HIT %:    66.1006  MISS %:    33.8994   MPKI: 66.7901
L1I LOAD      ACCESS:    9851215  HIT:    6511708  MISS:    3339507  HIT %:    66.1006  MISS %:    33.8994   MPKI: 66.7901
L1I PREFETCH  REQUESTED:          0  ISSUED:          0  USEFUL:          0  USELESS:          0
L1I USEFUL LOAD PREFETCHES:          0 PREFETCH ISSUED TO LOWER LEVEL:          0  ACCURACY: -nan
L1I TIMELY PREFETCHES:          0 LATE PREFETCHES: 0 DROPPED PREFETCHES: 0
L1I PREFETCHES SAME FILL-ORIGIN LEVEL: 0 DIFFERENT FILL-ORIGIN LEVEL: 0
L1I AVERAGE MISS LATENCY: 14.5446 cycles
L1I RQ	ACCESS:   14699190	FORWARD:          0	MERGED:    4117180	TO_CACHE:   10582010

BTB TOTAL     ACCESS:    6340916  HIT:    5350576  MISS:     990340  HIT %:    84.3818  MISS %:    15.6182   MPKI: 19.8068
BTB BRANCH_DIRECT_JUMP	ACCESS:     773568  HIT:     696055  MISS:      77513
BTB BRANCH_INDIRECT	ACCESS:     108366  HIT:      73637  MISS:      34729
BTB BRANCH_CONDITIONAL	ACCESS:    2912413  HIT:    2697483  MISS:     214930
BTB BRANCH_DIRECT_CALL	ACCESS:    1062756  HIT:     948426  MISS:     114330
BTB BRANCH_INDIRECT_CALL	ACCESS:     210540  HIT:     143969  MISS:      66571
BTB BRANCH_RETURN	ACCESS:    1273273  HIT:     791006  MISS:     482267
BTB BRANCH_OTHER ACCESS:          0  HIT:          0  MISS:          0

L2C TOTAL     ACCESS:    5103388  HIT:    4816824  MISS:     286564  HIT %:    94.3848  MISS %:    5.61517   MPKI: 5.73128
L2C LOAD      ACCESS:    3972120  HIT:    3839196  MISS:     132924  HIT %:    96.6536  MISS %:    3.34642   MPKI: 2.65848
L2C DATA LOAD MPKI: 2.26212
L2C INSTRUCTION LOAD MPKI: 0.39636
L2C RFO       ACCESS:     115897  HIT:      95598  MISS:      20299  HIT %:    82.4853  MISS %:    17.5147   MPKI: 0.40598
L2C PREFETCH  ACCESS:     727439  HIT:     599884  MISS:     127555  HIT %:    82.4652  MISS %:    17.5348   MPKI: 2.5511
L2C DATA PREFETCH MPKI: 2.5511
L2C INSTRUCTION PREFETCH MPKI: 0
L2C WRITEBACK ACCESS:     278330  HIT:     276601  MISS:       1729  HIT %:    99.3788  MISS %:   0.621205   MPKI: 0.03458
L2C LOAD TRANSLATION ACCESS:       9602  HIT:       5545  MISS:       4057  HIT %:    57.7484  MISS %:    42.2516   MPKI: 0.08114
L2C PREFETCH  REQUESTED:     553693  ISSUED:     553693  USEFUL:      50431  USELESS:      77253
L2C USEFUL LOAD PREFETCHES:      50431 PREFETCH ISSUED TO LOWER LEVEL:     131836  ACCURACY: 38.2528
L2C TIMELY PREFETCHES:      50431 LATE PREFETCHES: 4280 DROPPED PREFETCHES: 0
L2C PREFETCHES SAME FILL-ORIGIN LEVEL: 91951 DIFFERENT FILL-ORIGIN LEVEL: 0
L2C AVERAGE MISS LATENCY: 160.527 cycles
L2C RQ	ACCESS:    4097671	FORWARD:          0	MERGED:          0	TO_CACHE:    4097620
L2C WQ	ACCESS:     278331	FORWARD:         52	MERGED:          0	TO_CACHE:     278331
L2C PQ	ACCESS:     744271	FORWARD:          0	MERGED:       4700	TO_CACHE:     739570

L2C Instructions Evicting Data 14210
L2C Translations Evicting Data 3863
L2C Data Evicting Data 243215
L2C Instructions Evicting Instructions 5441
L2C Translations Evicting Instructions 149
L2C Data Evicting Instructions 13926
L2C Instructions Evicting Translations 167
L2C Translations Evicting Translations 45
L2C Data Evicting Translations 3819
L2C Dense regions hint from L2: 0
PSCL5 TOTAL     ACCESS:       8945  HIT:       8945  MISS:          0  HIT %:        100  MISS %:          0   MPKI: 0
PSCL5 LOAD TRANSLATION ACCESS:       8945  HIT:       8945  MISS:          0  HIT %:        100  MISS %:          0   MPKI: 0
PSCL5 PREFETCH  REQUESTED:          0  ISSUED:          0  USEFUL:          0  USELESS:          0
PSCL5 USEFUL LOAD PREFETCHES:          0 PREFETCH ISSUED TO LOWER LEVEL:          0  ACCURACY: -nan
PSCL5 TIMELY PREFETCHES:          0 LATE PREFETCHES: 0 DROPPED PREFETCHES: 0
PSCL5 PREFETCHES SAME FILL-ORIGIN LEVEL: 0 DIFFERENT FILL-ORIGIN LEVEL: 0

PSCL4 TOTAL     ACCESS:       8529  HIT:       8493  MISS:         36  HIT %:    99.5779  MISS %:   0.422089   MPKI: 0.00072
PSCL4 LOAD TRANSLATION ACCESS:       8529  HIT:       8493  MISS:         36  HIT %:    99.5779  MISS %:   0.422089   MPKI: 0.00072
PSCL4 PREFETCH  REQUESTED:          0  ISSUED:          0  USEFUL:          0  USELESS:          0
PSCL4 USEFUL LOAD PREFETCHES:          0 PREFETCH ISSUED TO LOWER LEVEL:          0  ACCURACY: -nan
PSCL4 TIMELY PREFETCHES:          0 LATE PREFETCHES: 0 DROPPED PREFETCHES: 0
PSCL4 PREFETCHES SAME FILL-ORIGIN LEVEL: 0 DIFFERENT FILL-ORIGIN LEVEL: 0

PSCL3 TOTAL     ACCESS:       8697  HIT:       8661  MISS:         36  HIT %:    99.5861  MISS %:   0.413936   MPKI: 0.00072
PSCL3 LOAD TRANSLATION ACCESS:       8697  HIT:       8661  MISS:         36  HIT %:    99.5861  MISS %:   0.413936   MPKI: 0.00072
PSCL3 PREFETCH  REQUESTED:          0  ISSUED:          0  USEFUL:          0  USELESS:          0
PSCL3 USEFUL LOAD PREFETCHES:          0 PREFETCH ISSUED TO LOWER LEVEL:          0  ACCURACY: -nan
PSCL3 TIMELY PREFETCHES:          0 LATE PREFETCHES: 0 DROPPED PREFETCHES: 0
PSCL3 PREFETCHES SAME FILL-ORIGIN LEVEL: 0 DIFFERENT FILL-ORIGIN LEVEL: 0

PSCL2 TOTAL     ACCESS:       8945  HIT:       8355  MISS:        590  HIT %:    93.4041  MISS %:    6.59586   MPKI: 0.0118
PSCL2 LOAD TRANSLATION ACCESS:       8945  HIT:       8355  MISS:        590  HIT %:    93.4041  MISS %:    6.59586   MPKI: 0.0118
PSCL2 PREFETCH  REQUESTED:          0  ISSUED:          0  USEFUL:          0  USELESS:          0
PSCL2 USEFUL LOAD PREFETCHES:          0 PREFETCH ISSUED TO LOWER LEVEL:          0  ACCURACY: -nan
PSCL2 TIMELY PREFETCHES:          0 LATE PREFETCHES: 0 DROPPED PREFETCHES: 0
PSCL2 PREFETCHES SAME FILL-ORIGIN LEVEL: 0 DIFFERENT FILL-ORIGIN LEVEL: 0

LLC TOTAL     ACCESS:     384128  HIT:     139649  MISS:     244479  HIT %:    36.3548  MISS %:    63.6452   MPKI: 4.88958
LLC LOAD      ACCESS:     128824  HIT:      41055  MISS:      87769  HIT %:    31.8691  MISS %:    68.1309   MPKI: 1.75538
LLC RFO       ACCESS:      20119  HIT:       7689  MISS:      12430  HIT %:    38.2176  MISS %:    61.7824   MPKI: 0.2486
LLC PREFETCH  ACCESS:     131836  HIT:      27566  MISS:     104270  HIT %:    20.9093  MISS %:    79.0907   MPKI: 2.0854
LLC WRITEBACK ACCESS:      99292  HIT:      61758  MISS:      37534  HIT %:    62.1984  MISS %:    37.8016   MPKI: 0.75068
LLC LOAD TRANSLATION ACCESS:       4057  HIT:       1581  MISS:       2476  HIT %:    38.9697  MISS %:    61.0303   MPKI: 0.04952
LLC PREFETCH  REQUESTED:          0  ISSUED:          0  USEFUL:       6390  USELESS:      95684
LLC USEFUL LOAD PREFETCHES:       6390 PREFETCH ISSUED TO LOWER LEVEL:     104270  ACCURACY: 6.12832
LLC TIMELY PREFETCHES:       6390 LATE PREFETCHES: 0 DROPPED PREFETCHES: 0
LLC PREFETCHES SAME FILL-ORIGIN LEVEL: 0 DIFFERENT FILL-ORIGIN LEVEL: 0
LLC AVERAGE MISS LATENCY: 153.71 cycles
LLC RQ	ACCESS:     153000	FORWARD:          0	MERGED:          0	TO_CACHE:     153000
LLC WQ	ACCESS:      99293	FORWARD:          0	MERGED:          0	TO_CACHE:      99293
LLC PQ	ACCESS:     131836	FORWARD:          0	MERGED:          0	TO_CACHE:     131836

LLC Dense regions hint to LLC: 0

RAW hits: 967805
Loads Generated: 12080891
Loads sent to L1D: 11113084
Stores Generated: 6513315
Stores sent to L1D: 6513311
Major fault: 0 Minor fault: 5429
Allocated PAGES: 5429

stream: 
stream:times selected: 451140
stream:pref_filled: 122521
stream:pref_useful: 15548
stream:pref_late: 1026
stream:misses: 11800
stream:misses_by_poll: 0

CS: 
CS:times selected: 20125
CS:pref_filled: 10026
CS:pref_useful: 4052
CS:pref_late: 1196
CS:misses: 666
CS:misses_by_poll: 17

CPLX: 
CPLX:times selected: 437531
CPLX:pref_filled: 82888
CPLX:pref_useful: 9099
CPLX:pref_late: 632
CPLX:misses: 54141
CPLX:misses_by_poll: 22

NL_L1: 
NL:times selected: 2220
NL:pref_filled: 1638
NL:pref_useful: 13
NL:pref_late: 2
NL:misses: 255
NL:misses_by_poll: 0

total selections: 911016
total_filled: 190152
total_useful: 26602
total_late: 2864
total_polluted: 39
total_misses_after_warmup: 664072
conflicts: 3234719
Degree Incremented Times: 0
Degree Decremented Times: 117233

L1 IP Table Write Accesses: 4321694
L1 IP Table Read Accesses: 1086975
L1 RST Write Accesses: 394131
L1 RST Read Accesses: 788262
L1 CSPT Write Accesses: 394131
L1 CSPT Read Accesses: 777910
L1 RR Filter Tag Write Accesses: 370589
L1 RR Filter Tag Read Accesses: 17581863
L1 IP Table Tag Write Accesses: 7783159
L1 IP Table Tag Read Accesses: 7783159
L1 RST Tag Write Accesses: 0
L1 RST Tag Read Accesses: 3970712
L1 RR Filter Write Accesses: 0
L1 RR Filter Read Accesses: 612873
test: 204687
L2 IP Table Read Accesses: 1076809
L2 IP Table Write Accesses: 1465611
L2 IP Table Tag Read Accesses: 817584
L2 IP Table Tag Write Accesses: 817584

DRAM Statistics
 CHANNEL 0
 RQ ROW_BUFFER_HIT:      50766  ROW_BUFFER_MISS:     156174
 DBUS_CONGESTED:        187
 WQ ROW_BUFFER_HIT:      16253  ROW_BUFFER_MISS:      61967  FULL:          0

 AVG_CONGESTED_CYCLE: 4
 All warmup complete: 2
Channel 0 Bank busy for read cycles: 0
Channel 0 Bank busy for write cycles: 0
Channel 0
Rank 0
0banks busy for read cycles: 85765802
0banks busy for write cycles: 22704
1banks busy for read cycles: 6329708
1banks busy for write cycles: 3204431
2banks busy for read cycles: 4196094
2banks busy for write cycles: 1365605
3banks busy for read cycles: 1418205
3banks busy for write cycles: 761193
4banks busy for read cycles: 617872
4banks busy for write cycles: 441843
5banks busy for read cycles: 331316
5banks busy for write cycles: 259389
6banks busy for read cycles: 183584
6banks busy for write cycles: 184579
7banks busy for read cycles: 154945
7banks busy for write cycles: 249951
8banks busy for read cycles: 103495
8banks busy for write cycles: 348412

CPU 0 Branch Prediction Accuracy: 93.023% MPKI: 13.5823 Average ROB Occupancy at Mispredict: 21.288
Branch types
NOT_BRANCH: 40266107 80.5322%
BRANCH_DIRECT_JUMP: 773568 1.54714%
BRANCH_INDIRECT: 108366 0.216732%
BRANCH_CONDITIONAL: 6305104 12.6102%
BRANCH_DIRECT_CALL: 1062756 2.12551%
BRANCH_INDIRECT_CALL: 210540 0.42108%
BRANCH_RETURN: 1273273 2.54655%
BRANCH_OTHER: 0 0%

@sumon_overall_L1D     26602      2627      2627    163557    190152    739788    740234
@Sumon_Early_by_class_L1D     13157      3866      7959         0
@Sumon_Late_by_class_L1D       878      1185       449         0

@Sumon_Early_by_cycle_L1D      6639      5169      4310      2156      2660      2311       898       698       180      1021       461        99
@Sumon_Late_by_cycle_L1D       583      1013       127       245       509        35
@Sumon_Early_stream_L1D      3711      3736      3219       476        77       151       484        96        77       731       338        61
@Sumon_Early_CS_L1D       821       470       496       738       445       707        93        70        16        10         0         0
@Sumon_Early_CPLX_L1D      2061       560       300       181      2137      1449       217       531        87       279       123        34
@Sumon_Late_stream_L1D       447       280        42        25        59        25
@Sumon_Late_CS_L1D        61       398        66       219       434         7
@Sumon_Late_CPLX_L1D        75       335        19         1        16         3
@sumon_overall_L2C     50431      4280         0     77253    127555    553693    553693
@Sumon_Early_by_class_L2C      1166        38      1124         0
@Sumon_Late_by_class_L2C         0         0         0         0

@Sumon_Early_by_cycle_L2C      6118      4681      4760      3003      2315      6024      1892       273      1400      5420     10489      4056
@Sumon_Late_by_cycle_L2C       652       246       138       888      2356         0
@Sumon_Early_stream_L2C         0         0         0         0         0         0         0         0         0         9       686       471
@Sumon_Early_CS_L2C         0         0         0         0         0         0         0         0         0         0        18        20
@Sumon_Early_CPLX_L2C         0         0         0         0         0         0         0         0         0        25       206       893
@Sumon_Late_stream_L2C         0         0         0         0         0         0
@Sumon_Late_CS_L2C         0         0         0         0         0         0
@Sumon_Late_CPLX_L2C         0         0         0         0         0         0
DRAM PAGES: 1048576
Allocated PAGES: 5429
