
*** ChampSim Multicore Out-of-Order Simulator ***

Warmup Instructions: 10000000
Simulation Instructions: 50000000
Number of CPUs: 1
LLC sets: 2048
LLC ways: 16
Off-chip DRAM Size: 4096 MB Channels: 1 Width: 64-bit Data Rate: 6400 MT/s
CPU 0 runs traces/clientserver/server_037.champsimtrace.xz
.xz
CPU 0 Bimodal branch predictor
BTB has LRU replacement policy
ITLB has LRU replacement policy
DTLB has LRU replacement policy
STLB has LRU replacement policy
L1I has LRU replacement policy
IP Table Entries: 256
L1D has LRU replacement policy
IP_Table L2 entries: 256
L2C has LRU replacement policy
Initialize Hawkeye state
Heartbeat CPU 0 instructions: 10000000 cycles: 2752083 heartbeat IPC: 3.63361 cumulative IPC: 3.63361 (Simulation time: 0 hr 20 min 0 sec) 

Warmup complete CPU 0 instructions: 10000004 cycles: 2752084 (Simulation time: 0 hr 20 min 0 sec) 

Heartbeat CPU 0 instructions: 20000001 cycles: 20742933 heartbeat IPC: 0.555838 cumulative IPC: 0.555838 (Simulation time: 0 hr 37 min 32 sec) 
Heartbeat CPU 0 instructions: 30000000 cycles: 38425553 heartbeat IPC: 0.565527 cumulative IPC: 0.560641 (Simulation time: 0 hr 54 min 58 sec) 
Heartbeat CPU 0 instructions: 40000000 cycles: 56366010 heartbeat IPC: 0.557399 cumulative IPC: 0.559556 (Simulation time: 1 hr 12 min 28 sec) 
Heartbeat CPU 0 instructions: 50000000 cycles: 74225328 heartbeat IPC: 0.559932 cumulative IPC: 0.55965 (Simulation time: 1 hr 28 min 50 sec) 
Heartbeat CPU 0 instructions: 60000001 cycles: 92096527 heartbeat IPC: 0.55956 cumulative IPC: 0.559632 (Simulation time: 1 hr 42 min 28 sec) 
Finished CPU 0 instructions: 50000001 cycles: 89344450 cumulative IPC: 0.559632 (Simulation time: 1 hr 42 min 28 sec) 

ChampSim completed all CPUs

Region of Interest Statistics

CPU 0 cumulative IPC: 0.559632 instructions: 50000001 cycles: 89344450
ITLB TOTAL     ACCESS:    8848244  HIT:    8221277  MISS:     626967  HIT %:    92.9142  MISS %:    7.08578   MPKI: 12.5393
ITLB LOAD TRANSLATION ACCESS:    8848244  HIT:    8221277  MISS:     626967  HIT %:    92.9142  MISS %:    7.08578   MPKI: 12.5393
ITLB PREFETCH  REQUESTED:          0  ISSUED:          0  USEFUL:          0  USELESS:          0
ITLB USEFUL LOAD PREFETCHES:          0 PREFETCH ISSUED TO LOWER LEVEL:          0  ACCURACY: -nan
ITLB TIMELY PREFETCHES:          0 LATE PREFETCHES: 0 DROPPED PREFETCHES: 0
ITLB PREFETCHES SAME FILL-ORIGIN LEVEL: 0 DIFFERENT FILL-ORIGIN LEVEL: 0
ITLB AVERAGE MISS LATENCY: 9.04995 cycles
ITLB RQ	ACCESS:   10657598	FORWARD:          0	MERGED:    1614985	TO_CACHE:    9042613

DTLB TOTAL     ACCESS:   10843774  HIT:   10321740  MISS:     522034  HIT %:    95.1859  MISS %:    4.81414   MPKI: 10.4407
DTLB LOAD TRANSLATION ACCESS:   10843774  HIT:   10321740  MISS:     522034  HIT %:    95.1859  MISS %:    4.81414   MPKI: 10.4407
DTLB PREFETCH  REQUESTED:          0  ISSUED:          0  USEFUL:          0  USELESS:          0
DTLB USEFUL LOAD PREFETCHES:          0 PREFETCH ISSUED TO LOWER LEVEL:          0  ACCURACY: -nan
DTLB TIMELY PREFETCHES:          0 LATE PREFETCHES: 0 DROPPED PREFETCHES: 0
DTLB PREFETCHES SAME FILL-ORIGIN LEVEL: 0 DIFFERENT FILL-ORIGIN LEVEL: 0
DTLB AVERAGE MISS LATENCY: 10.2204 cycles
DTLB RQ	ACCESS:   14426327	FORWARD:          0	MERGED:    3544389	TO_CACHE:   10881938

STLB TOTAL     ACCESS:    1267010  HIT:    1261177  MISS:       5833  HIT %:    99.5396  MISS %:   0.460375   MPKI: 0.11666
STLB LOAD TRANSLATION ACCESS:    1149001  HIT:    1143168  MISS:       5833  HIT %:    99.4923  MISS %:   0.507658   MPKI: 0.11666
STLB TRANSLATION FROM L1D PREFETCHER ACCESS:     118009  HIT:     118009  MISS:          0  HIT %:        100  MISS %:          0   MPKI: 0
STLB PREFETCH  REQUESTED:          0  ISSUED:          0  USEFUL:          0  USELESS:          0
STLB USEFUL LOAD PREFETCHES:          0 PREFETCH ISSUED TO LOWER LEVEL:          0  ACCURACY: -nan
STLB TIMELY PREFETCHES:          0 LATE PREFETCHES: 0 DROPPED PREFETCHES: 0
STLB PREFETCHES SAME FILL-ORIGIN LEVEL: 0 DIFFERENT FILL-ORIGIN LEVEL: 0
STLB AVERAGE MISS LATENCY: 111.545 cycles
STLB RQ	ACCESS:    1353909	FORWARD:          0	MERGED:      86899	TO_CACHE:    1267010

STLB Hit, L1D data hit: 0
STLB Hit, L2C data hit: 0
STLB Hit, LLC data hit: 0
STLB Hit, LLC data miss: 0
STLB STLB hints to L2: 0
L1D TOTAL     ACCESS:   14526957  HIT:   14027966  MISS:     498991  HIT %:    96.5651  MISS %:    3.43493   MPKI: 9.97982
L1D LOAD      ACCESS:    8059310  HIT:    7679480  MISS:     379830  HIT %:    95.2871  MISS %:    4.71293   MPKI: 7.5966
L1D RFO       ACCESS:    6269692  HIT:    6205665  MISS:      64027  HIT %:    98.9788  MISS %:    1.02121   MPKI: 1.28054
L1D PREFETCH  ACCESS:     197955  HIT:     142821  MISS:      55134  HIT %:    72.1482  MISS %:    27.8518   MPKI: 1.10268
L1D PREFETCH  REQUESTED:     409977  ISSUED:     409877  USEFUL:      16673  USELESS:      38475
L1D USEFUL LOAD PREFETCHES:      16673 PREFETCH ISSUED TO LOWER LEVEL:      55134  ACCURACY: 30.2409
L1D TIMELY PREFETCHES:      16673 LATE PREFETCHES: 1385 DROPPED PREFETCHES: 0
L1D PREFETCHES SAME FILL-ORIGIN LEVEL: 55134 DIFFERENT FILL-ORIGIN LEVEL: 0
L1D AVERAGE MISS LATENCY: 33.6749 cycles
L1D RQ	ACCESS:   11758124	FORWARD:          0	MERGED:    3506053	TO_CACHE:    8083757
L1D WQ	ACCESS:    6389167	FORWARD:     168375	MERGED:      46597	TO_CACHE:    6342570
L1D PQ	ACCESS:     204969	FORWARD:          0	MERGED:          0	TO_CACHE:     204908

L1D UNIQUE REGIONS ACCESSED: 0
L1D REGIONS CONFLICTS: 0
L1D Cross Page Prefetch Requests: 0
L1D Same Page Prefetch Requests: 242543
L1D ROI Sum of L1D PQ occupancy: 2690722
L1D PREFETCHES PUSHED FROM L2C: 0
L1I TOTAL     ACCESS:    9639752  HIT:    5643244  MISS:    3996508  HIT %:    58.5414  MISS %:    41.4586   MPKI: 79.9302
L1I LOAD      ACCESS:    9639752  HIT:    5643244  MISS:    3996508  HIT %:    58.5414  MISS %:    41.4586   MPKI: 79.9302
L1I PREFETCH  REQUESTED:          0  ISSUED:          0  USEFUL:          0  USELESS:          0
L1I USEFUL LOAD PREFETCHES:          0 PREFETCH ISSUED TO LOWER LEVEL:          0  ACCURACY: -nan
L1I TIMELY PREFETCHES:          0 LATE PREFETCHES: 0 DROPPED PREFETCHES: 0
L1I PREFETCHES SAME FILL-ORIGIN LEVEL: 0 DIFFERENT FILL-ORIGIN LEVEL: 0
L1I AVERAGE MISS LATENCY: 14.1747 cycles
L1I RQ	ACCESS:   14761708	FORWARD:          0	MERGED:    4104110	TO_CACHE:   10657598

BTB TOTAL     ACCESS:    5416946  HIT:    4897168  MISS:     519778  HIT %:    90.4046  MISS %:    9.59541   MPKI: 10.3956
BTB BRANCH_DIRECT_JUMP	ACCESS:     540054  HIT:     527588  MISS:      12466
BTB BRANCH_INDIRECT	ACCESS:      59163  HIT:      59065  MISS:         98
BTB BRANCH_CONDITIONAL	ACCESS:    2342991  HIT:    2302512  MISS:      40479
BTB BRANCH_DIRECT_CALL	ACCESS:    1004108  HIT:     967236  MISS:      36872
BTB BRANCH_INDIRECT_CALL	ACCESS:     233270  HIT:     188049  MISS:      45221
BTB BRANCH_RETURN	ACCESS:    1237360  HIT:     852718  MISS:     384642
BTB BRANCH_OTHER ACCESS:          0  HIT:          0  MISS:          0

L2C TOTAL     ACCESS:    5023915  HIT:    4746740  MISS:     277175  HIT %:    94.4829  MISS %:    5.51711   MPKI: 5.5435
L2C LOAD      ACCESS:    4376335  HIT:    4229670  MISS:     146665  HIT %:    96.6487  MISS %:    3.35132   MPKI: 2.9333
L2C DATA LOAD MPKI: 2.76116
L2C INSTRUCTION LOAD MPKI: 0.17214
L2C RFO       ACCESS:      64027  HIT:      33881  MISS:      30146  HIT %:    52.9167  MISS %:    47.0833   MPKI: 0.60292
L2C PREFETCH  ACCESS:     339805  HIT:     245532  MISS:      94273  HIT %:    72.2567  MISS %:    27.7433   MPKI: 1.88546
L2C DATA PREFETCH MPKI: 1.88546
L2C INSTRUCTION PREFETCH MPKI: 0
L2C WRITEBACK ACCESS:     235667  HIT:     235070  MISS:        597  HIT %:    99.7467  MISS %:   0.253324   MPKI: 0.01194
L2C LOAD TRANSLATION ACCESS:       8081  HIT:       2587  MISS:       5494  HIT %:    32.0134  MISS %:    67.9866   MPKI: 0.10988
L2C PREFETCH  REQUESTED:     303210  ISSUED:     303210  USEFUL:      33293  USELESS:      61057
L2C USEFUL LOAD PREFETCHES:      33293 PREFETCH ISSUED TO LOWER LEVEL:      94956  ACCURACY: 35.0615
L2C TIMELY PREFETCHES:      33293 LATE PREFETCHES: 683 DROPPED PREFETCHES: 0
L2C PREFETCHES SAME FILL-ORIGIN LEVEL: 76251 DIFFERENT FILL-ORIGIN LEVEL: 0
L2C AVERAGE MISS LATENCY: 46.6699 cycles
L2C RQ	ACCESS:    4448447	FORWARD:          0	MERGED:          0	TO_CACHE:    4448443
L2C WQ	ACCESS:     235667	FORWARD:          5	MERGED:          0	TO_CACHE:     235667
L2C PQ	ACCESS:     358344	FORWARD:          0	MERGED:       6992	TO_CACHE:     351351

L2C Instructions Evicting Data 7885
L2C Translations Evicting Data 5116
L2C Data Evicting Data 249478
L2C Instructions Evicting Instructions 545
L2C Translations Evicting Instructions 208
L2C Data Evicting Instructions 7853
L2C Instructions Evicting Translations 177
L2C Translations Evicting Translations 168
L2C Data Evicting Translations 5129
L2C Dense regions hint from L2: 0
PSCL5 TOTAL     ACCESS:       5833  HIT:       5833  MISS:          0  HIT %:        100  MISS %:          0   MPKI: 0
PSCL5 LOAD TRANSLATION ACCESS:       5833  HIT:       5833  MISS:          0  HIT %:        100  MISS %:          0   MPKI: 0
PSCL5 PREFETCH  REQUESTED:          0  ISSUED:          0  USEFUL:          0  USELESS:          0
PSCL5 USEFUL LOAD PREFETCHES:          0 PREFETCH ISSUED TO LOWER LEVEL:          0  ACCURACY: -nan
PSCL5 TIMELY PREFETCHES:          0 LATE PREFETCHES: 0 DROPPED PREFETCHES: 0
PSCL5 PREFETCHES SAME FILL-ORIGIN LEVEL: 0 DIFFERENT FILL-ORIGIN LEVEL: 0

PSCL4 TOTAL     ACCESS:       5833  HIT:       5833  MISS:          0  HIT %:        100  MISS %:          0   MPKI: 0
PSCL4 LOAD TRANSLATION ACCESS:       5833  HIT:       5833  MISS:          0  HIT %:        100  MISS %:          0   MPKI: 0
PSCL4 PREFETCH  REQUESTED:          0  ISSUED:          0  USEFUL:          0  USELESS:          0
PSCL4 USEFUL LOAD PREFETCHES:          0 PREFETCH ISSUED TO LOWER LEVEL:          0  ACCURACY: -nan
PSCL4 TIMELY PREFETCHES:          0 LATE PREFETCHES: 0 DROPPED PREFETCHES: 0
PSCL4 PREFETCHES SAME FILL-ORIGIN LEVEL: 0 DIFFERENT FILL-ORIGIN LEVEL: 0

PSCL3 TOTAL     ACCESS:       5809  HIT:       5779  MISS:         30  HIT %:    99.4836  MISS %:    0.51644   MPKI: 0.0006
PSCL3 LOAD TRANSLATION ACCESS:       5809  HIT:       5779  MISS:         30  HIT %:    99.4836  MISS %:    0.51644   MPKI: 0.0006
PSCL3 PREFETCH  REQUESTED:          0  ISSUED:          0  USEFUL:          0  USELESS:          0
PSCL3 USEFUL LOAD PREFETCHES:          0 PREFETCH ISSUED TO LOWER LEVEL:          0  ACCURACY: -nan
PSCL3 TIMELY PREFETCHES:          0 LATE PREFETCHES: 0 DROPPED PREFETCHES: 0
PSCL3 PREFETCHES SAME FILL-ORIGIN LEVEL: 0 DIFFERENT FILL-ORIGIN LEVEL: 0

PSCL2 TOTAL     ACCESS:       5833  HIT:       3588  MISS:       2245  HIT %:    61.5121  MISS %:    38.4879   MPKI: 0.0449
PSCL2 LOAD TRANSLATION ACCESS:       5833  HIT:       3588  MISS:       2245  HIT %:    61.5121  MISS %:    38.4879   MPKI: 0.0449
PSCL2 PREFETCH  REQUESTED:          0  ISSUED:          0  USEFUL:          0  USELESS:          0
PSCL2 USEFUL LOAD PREFETCHES:          0 PREFETCH ISSUED TO LOWER LEVEL:          0  ACCURACY: -nan
PSCL2 TIMELY PREFETCHES:          0 LATE PREFETCHES: 0 DROPPED PREFETCHES: 0
PSCL2 PREFETCHES SAME FILL-ORIGIN LEVEL: 0 DIFFERENT FILL-ORIGIN LEVEL: 0

LLC TOTAL     ACCESS:     405053  HIT:     373422  MISS:      31631  HIT %:    92.1909  MISS %:     7.8091   MPKI: 0.63262
LLC LOAD      ACCESS:     145982  HIT:     131300  MISS:      14682  HIT %:    89.9426  MISS %:    10.0574   MPKI: 0.29364
LLC RFO       ACCESS:      30146  HIT:      24565  MISS:       5581  HIT %:    81.4868  MISS %:    18.5132   MPKI: 0.11162
LLC PREFETCH  ACCESS:      94956  HIT:      85866  MISS:       9090  HIT %:    90.4271  MISS %:    9.57285   MPKI: 0.1818
LLC WRITEBACK ACCESS:     128475  HIT:     126737  MISS:       1738  HIT %:    98.6472  MISS %:    1.35279   MPKI: 0.03476
LLC LOAD TRANSLATION ACCESS:       5494  HIT:       4954  MISS:        540  HIT %:    90.1711  MISS %:     9.8289   MPKI: 0.0108
LLC PREFETCH  REQUESTED:          0  ISSUED:          0  USEFUL:        590  USELESS:       4289
LLC USEFUL LOAD PREFETCHES:        590 PREFETCH ISSUED TO LOWER LEVEL:       9090  ACCURACY: 6.49065
LLC TIMELY PREFETCHES:        590 LATE PREFETCHES: 0 DROPPED PREFETCHES: 0
LLC PREFETCHES SAME FILL-ORIGIN LEVEL: 0 DIFFERENT FILL-ORIGIN LEVEL: 0
LLC AVERAGE MISS LATENCY: 146.416 cycles
LLC RQ	ACCESS:     181622	FORWARD:          0	MERGED:          0	TO_CACHE:     181622
LLC WQ	ACCESS:     128475	FORWARD:          0	MERGED:          0	TO_CACHE:     128475
LLC PQ	ACCESS:      94956	FORWARD:          0	MERGED:          0	TO_CACHE:      94956

LLC Dense regions hint to LLC: 0

RAW hits: 728415
Loads Generated: 12486539
Loads sent to L1D: 11758124
Stores Generated: 6389161
Stores sent to L1D: 6389167
Major fault: 0 Minor fault: 4736
Allocated PAGES: 4736

stream: 
stream:times selected: 194917
stream:pref_filled: 32880
stream:pref_useful: 10989
stream:pref_late: 282
stream:misses: 464
stream:misses_by_poll: 0

CS: 
CS:times selected: 4714
CS:pref_filled: 1719
CS:pref_useful: 494
CS:pref_late: 1177
CS:misses: 1309
CS:misses_by_poll: 0

CPLX: 
CPLX:times selected: 185166
CPLX:pref_filled: 27632
CPLX:pref_useful: 7107
CPLX:pref_late: 182
CPLX:misses: 4601
CPLX:misses_by_poll: 0

NL_L1: 
NL:times selected: 4277
NL:pref_filled: 229
NL:pref_useful: 70
NL:pref_late: 0
NL:misses: 22
NL:misses_by_poll: 0

total selections: 389074
total_filled: 55134
total_useful: 16673
total_late: 1644
total_polluted: 0
total_misses_after_warmup: 404275
conflicts: 3696568
Degree Incremented Times: 1
Degree Decremented Times: 82495

L1 IP Table Write Accesses: 4218248
L1 IP Table Read Accesses: 521680
L1 RST Write Accesses: 165693
L1 RST Read Accesses: 331386
L1 CSPT Write Accesses: 165693
L1 CSPT Read Accesses: 324630
L1 RR Filter Tag Write Accesses: 205069
L1 RR Filter Tag Read Accesses: 8935843
L1 IP Table Tag Write Accesses: 8083755
L1 IP Table Tag Read Accesses: 8083755
L1 RST Tag Write Accesses: 0
L1 RST Tag Read Accesses: 1528602
L1 RR Filter Write Accesses: 0
L1 RR Filter Read Accesses: 291423
test: 70576
L2 IP Table Read Accesses: 554313
L2 IP Table Write Accesses: 722520
L2 IP Table Tag Read Accesses: 429686
L2 IP Table Tag Write Accesses: 429686

DRAM Statistics
 CHANNEL 0
 RQ ROW_BUFFER_HIT:       6369  ROW_BUFFER_MISS:      23524
 DBUS_CONGESTED:         13
 WQ ROW_BUFFER_HIT:        650  ROW_BUFFER_MISS:       6020  FULL:          0

 AVG_CONGESTED_CYCLE: 4
 All warmup complete: 2
Channel 0 Bank busy for read cycles: 0
Channel 0 Bank busy for write cycles: 0
Channel 0
Rank 0
0banks busy for read cycles: 85885529
0banks busy for write cycles: 5052
1banks busy for read cycles: 1490892
1banks busy for write cycles: 799122
2banks busy for read cycles: 851753
2banks busy for write cycles: 118113
3banks busy for read cycles: 98232
3banks busy for write cycles: 17106
4banks busy for read cycles: 26261
4banks busy for write cycles: 7995
5banks busy for read cycles: 8808
5banks busy for write cycles: 4571
6banks busy for read cycles: 6914
6banks busy for write cycles: 867
7banks busy for read cycles: 8725
7banks busy for write cycles: 1209
8banks busy for read cycles: 13302
8banks busy for write cycles: 0

CPU 0 Branch Prediction Accuracy: 96.3938% MPKI: 6.5053 Average ROB Occupancy at Mispredict: 21.7053
Branch types
NOT_BRANCH: 40980217 81.9604%
BRANCH_DIRECT_JUMP: 540054 1.08011%
BRANCH_INDIRECT: 59163 0.118326%
BRANCH_CONDITIONAL: 5945671 11.8913%
BRANCH_DIRECT_CALL: 1004108 2.00822%
BRANCH_INDIRECT_CALL: 233270 0.46654%
BRANCH_RETURN: 1237360 2.47472%
BRANCH_OTHER: 0 0%

@sumon_overall_L1D     16673      1385      1385     38475     55134    409877    409977
@Sumon_Early_by_class_L1D      9004       146      5819         0
@Sumon_Late_by_class_L1D        72      1177        92         0

@Sumon_Early_by_cycle_L1D       880       365        23        16       291      2894      1292      1365      6466      2617       259       205
@Sumon_Late_by_cycle_L1D        99        60        83       432       669         0
@Sumon_Early_stream_L1D       505        62        11        11        25      1382       837       738      3890      1364       117        62
@Sumon_Early_CS_L1D       123        22         0         0         1         0         0         0         0         0         0         0
@Sumon_Early_CPLX_L1D       188       256        10         5         0       998       322       584      2482       718       130       126
@Sumon_Late_stream_L1D        16        39         0         1        16         0
@Sumon_Late_CS_L1D         9        16        71       428       653         0
@Sumon_Late_CPLX_L1D        74         4        11         3         0         0
@sumon_overall_L2C     33293       683         0     61057     94273    303210    303210
@Sumon_Early_by_class_L2C       908         0       704         0
@Sumon_Late_by_class_L2C         0        15         0         0

@Sumon_Early_by_cycle_L2C      2109      3115      6755       942      1648      8495      1129       665      1260      3854       227      3094
@Sumon_Late_by_cycle_L2C       466        27       114        24        52         0
@Sumon_Early_stream_L2C         0         0         0         0         0         0         0         0        57        16        33       802
@Sumon_Early_CS_L2C         0         0         0         0         0         0         0         0         0         0         0         0
@Sumon_Early_CPLX_L2C         0         0         0         0         0         0         0         3        17        49        17       618
@Sumon_Late_stream_L2C         0         0         0         0         0         0
@Sumon_Late_CS_L2C         0         0         2         3        10         0
@Sumon_Late_CPLX_L2C         0         0         0         0         0         0
DRAM PAGES: 1048576
Allocated PAGES: 4736
