
*** ChampSim Multicore Out-of-Order Simulator ***

Warmup Instructions: 10000000
Simulation Instructions: 50000000
Number of CPUs: 1
LLC sets: 2048
LLC ways: 16
Off-chip DRAM Size: 4096 MB Channels: 1 Width: 64-bit Data Rate: 6400 MT/s
CPU 0 runs traces/clientserver/server_025.champsimtrace.xz
.xz
CPU 0 Bimodal branch predictor
BTB has LRU replacement policy
ITLB has LRU replacement policy
DTLB has LRU replacement policy
STLB has LRU replacement policy
L1I has LRU replacement policy
IP Table Entries: 256
L1D has LRU replacement policy
IP_Table L2 entries: 256
L2C has LRU replacement policy
Initialize Hawkeye state
Heartbeat CPU 0 instructions: 10000000 cycles: 2889041 heartbeat IPC: 3.46136 cumulative IPC: 3.46136 (Simulation time: 0 hr 20 min 57 sec) 

Warmup complete CPU 0 instructions: 10000004 cycles: 2889042 (Simulation time: 0 hr 20 min 57 sec) 

Heartbeat CPU 0 instructions: 20000002 cycles: 28276226 heartbeat IPC: 0.3939 cumulative IPC: 0.393899 (Simulation time: 0 hr 39 min 48 sec) 
Heartbeat CPU 0 instructions: 30000001 cycles: 53484298 heartbeat IPC: 0.396698 cumulative IPC: 0.395294 (Simulation time: 0 hr 58 min 43 sec) 
Heartbeat CPU 0 instructions: 40000001 cycles: 78791127 heartbeat IPC: 0.39515 cumulative IPC: 0.395246 (Simulation time: 1 hr 17 min 46 sec) 
Heartbeat CPU 0 instructions: 50000002 cycles: 104098516 heartbeat IPC: 0.395142 cumulative IPC: 0.39522 (Simulation time: 1 hr 34 min 32 sec) 
Heartbeat CPU 0 instructions: 60000000 cycles: 129367415 heartbeat IPC: 0.395743 cumulative IPC: 0.395324 (Simulation time: 1 hr 46 min 59 sec) 
Finished CPU 0 instructions: 50000000 cycles: 126478403 cumulative IPC: 0.395324 (Simulation time: 1 hr 46 min 59 sec) 

ChampSim completed all CPUs

Region of Interest Statistics

CPU 0 cumulative IPC: 0.395324 instructions: 50000000 cycles: 126478403
ITLB TOTAL     ACCESS:    8421859  HIT:    7926905  MISS:     494954  HIT %:     94.123  MISS %:    5.87702   MPKI: 9.89908
ITLB LOAD TRANSLATION ACCESS:    8421859  HIT:    7926905  MISS:     494954  HIT %:     94.123  MISS %:    5.87702   MPKI: 9.89908
ITLB PREFETCH  REQUESTED:          0  ISSUED:          0  USEFUL:          0  USELESS:          0
ITLB USEFUL LOAD PREFETCHES:          0 PREFETCH ISSUED TO LOWER LEVEL:          0  ACCURACY: -nan
ITLB TIMELY PREFETCHES:          0 LATE PREFETCHES: 0 DROPPED PREFETCHES: 0
ITLB PREFETCHES SAME FILL-ORIGIN LEVEL: 0 DIFFERENT FILL-ORIGIN LEVEL: 0
ITLB AVERAGE MISS LATENCY: 9.07576 cycles
ITLB RQ	ACCESS:   10067489	FORWARD:          0	MERGED:    1520533	TO_CACHE:    8546956

DTLB TOTAL     ACCESS:   12660594  HIT:   12185989  MISS:     474605  HIT %:    96.2513  MISS %:    3.74868   MPKI: 9.4921
DTLB LOAD TRANSLATION ACCESS:   12660594  HIT:   12185989  MISS:     474605  HIT %:    96.2513  MISS %:    3.74868   MPKI: 9.4921
DTLB PREFETCH  REQUESTED:          0  ISSUED:          0  USEFUL:          0  USELESS:          0
DTLB USEFUL LOAD PREFETCHES:          0 PREFETCH ISSUED TO LOWER LEVEL:          0  ACCURACY: -nan
DTLB TIMELY PREFETCHES:          0 LATE PREFETCHES: 0 DROPPED PREFETCHES: 0
DTLB PREFETCHES SAME FILL-ORIGIN LEVEL: 0 DIFFERENT FILL-ORIGIN LEVEL: 0
DTLB AVERAGE MISS LATENCY: 9.40196 cycles
DTLB RQ	ACCESS:   15793322	FORWARD:          0	MERGED:    3114174	TO_CACHE:   12679148

STLB TOTAL     ACCESS:    1381440  HIT:    1378979  MISS:       2461  HIT %:    99.8219  MISS %:   0.178147   MPKI: 0.04922
STLB LOAD TRANSLATION ACCESS:     969559  HIT:     967098  MISS:       2461  HIT %:    99.7462  MISS %:   0.253827   MPKI: 0.04922
STLB TRANSLATION FROM L1D PREFETCHER ACCESS:     411881  HIT:     411881  MISS:          0  HIT %:        100  MISS %:          0   MPKI: 0
STLB PREFETCH  REQUESTED:          0  ISSUED:          0  USEFUL:          0  USELESS:          0
STLB USEFUL LOAD PREFETCHES:          0 PREFETCH ISSUED TO LOWER LEVEL:          0  ACCURACY: -nan
STLB TIMELY PREFETCHES:          0 LATE PREFETCHES: 0 DROPPED PREFETCHES: 0
STLB PREFETCHES SAME FILL-ORIGIN LEVEL: 0 DIFFERENT FILL-ORIGIN LEVEL: 0
STLB AVERAGE MISS LATENCY: 88.9675 cycles
STLB RQ	ACCESS:    1493282	FORWARD:          0	MERGED:     111842	TO_CACHE:    1381440

STLB Hit, L1D data hit: 0
STLB Hit, L2C data hit: 0
STLB Hit, LLC data hit: 0
STLB Hit, LLC data miss: 0
STLB STLB hints to L2: 0
L1D TOTAL     ACCESS:   15797934  HIT:   14631618  MISS:    1166316  HIT %:    92.6173  MISS %:    7.38271   MPKI: 23.3263
L1D LOAD      ACCESS:    8829414  HIT:    8126783  MISS:     702631  HIT %:    92.0422  MISS %:    7.95784   MPKI: 14.0526
L1D RFO       ACCESS:    6456762  HIT:    6162605  MISS:     294157  HIT %:    95.4442  MISS %:     4.5558   MPKI: 5.88314
L1D PREFETCH  ACCESS:     511758  HIT:     342230  MISS:     169528  HIT %:    66.8734  MISS %:    33.1266   MPKI: 3.39056
L1D PREFETCH  REQUESTED:    1047648  ISSUED:    1047648  USEFUL:      46298  USELESS:     123220
L1D USEFUL LOAD PREFETCHES:      46298 PREFETCH ISSUED TO LOWER LEVEL:     169925  ACCURACY: 27.2461
L1D TIMELY PREFETCHES:      46298 LATE PREFETCHES: 28308 DROPPED PREFETCHES: 0
L1D PREFETCHES SAME FILL-ORIGIN LEVEL: 169925 DIFFERENT FILL-ORIGIN LEVEL: 0
L1D AVERAGE MISS LATENCY: 22225.9 cycles
L1D RQ	ACCESS:   12117576	FORWARD:          0	MERGED:    3114213	TO_CACHE:    8887341
L1D WQ	ACCESS:    6952503	FORWARD:     116224	MERGED:      46522	TO_CACHE:    6905981
L1D PQ	ACCESS:     523925	FORWARD:          0	MERGED:          0	TO_CACHE:     523723

L1D UNIQUE REGIONS ACCESSED: 0
L1D REGIONS CONFLICTS: 0
L1D Cross Page Prefetch Requests: 0
L1D Same Page Prefetch Requests: 622381
L1D ROI Sum of L1D PQ occupancy: 6724593
L1D PREFETCHES PUSHED FROM L2C: 0
L1I TOTAL     ACCESS:    9598705  HIT:    6829904  MISS:    2768801  HIT %:    71.1544  MISS %:    28.8456   MPKI: 55.376
L1I LOAD      ACCESS:    9598705  HIT:    6829904  MISS:    2768801  HIT %:    71.1544  MISS %:    28.8456   MPKI: 55.376
L1I PREFETCH  REQUESTED:          0  ISSUED:          0  USEFUL:          0  USELESS:          0
L1I USEFUL LOAD PREFETCHES:          0 PREFETCH ISSUED TO LOWER LEVEL:          0  ACCURACY: -nan
L1I TIMELY PREFETCHES:          0 LATE PREFETCHES: 0 DROPPED PREFETCHES: 0
L1I PREFETCHES SAME FILL-ORIGIN LEVEL: 0 DIFFERENT FILL-ORIGIN LEVEL: 0
L1I AVERAGE MISS LATENCY: 19.1046 cycles
L1I RQ	ACCESS:   13830303	FORWARD:          0	MERGED:    3762814	TO_CACHE:   10067489

BTB TOTAL     ACCESS:    5985589  HIT:    3971316  MISS:    2014273  HIT %:     66.348  MISS %:     33.652   MPKI: 40.2855
BTB BRANCH_DIRECT_JUMP	ACCESS:     527165  HIT:     349603  MISS:     177562
BTB BRANCH_INDIRECT	ACCESS:     205601  HIT:     168171  MISS:      37430
BTB BRANCH_CONDITIONAL	ACCESS:    3024529  HIT:    2460439  MISS:     564090
BTB BRANCH_DIRECT_CALL	ACCESS:     939434  HIT:     530321  MISS:     409113
BTB BRANCH_INDIRECT_CALL	ACCESS:     174709  HIT:      95732  MISS:      78977
BTB BRANCH_RETURN	ACCESS:    1114151  HIT:     367050  MISS:     747101
BTB BRANCH_OTHER ACCESS:          0  HIT:          0  MISS:          0

L2C TOTAL     ACCESS:    5069186  HIT:    4245340  MISS:     823846  HIT %:     83.748  MISS %:     16.252   MPKI: 16.4769
L2C LOAD      ACCESS:    3471421  HIT:    2900242  MISS:     571179  HIT %:    83.5462  MISS %:    16.4538   MPKI: 11.4236
L2C DATA LOAD MPKI: 2.25444
L2C INSTRUCTION LOAD MPKI: 9.16914
L2C RFO       ACCESS:     293753  HIT:     202524  MISS:      91229  HIT %:    68.9436  MISS %:    31.0564   MPKI: 1.82458
L2C PREFETCH  ACCESS:     768590  HIT:     618412  MISS:     150178  HIT %:    80.4606  MISS %:    19.5394   MPKI: 3.00356
L2C DATA PREFETCH MPKI: 3.00356
L2C INSTRUCTION PREFETCH MPKI: 0
L2C WRITEBACK ACCESS:     532789  HIT:     523510  MISS:       9279  HIT %:    98.2584  MISS %:    1.74159   MPKI: 0.18558
L2C LOAD TRANSLATION ACCESS:       2633  HIT:        652  MISS:       1981  HIT %:    24.7626  MISS %:    75.2374   MPKI: 0.03962
L2C PREFETCH  REQUESTED:     613496  ISSUED:     613496  USEFUL:      24449  USELESS:     125759
L2C USEFUL LOAD PREFETCHES:      24449 PREFETCH ISSUED TO LOWER LEVEL:     152353  ACCURACY: 16.0476
L2C TIMELY PREFETCHES:      24449 LATE PREFETCHES: 2175 DROPPED PREFETCHES: 0
L2C PREFETCHES SAME FILL-ORIGIN LEVEL: 96234 DIFFERENT FILL-ORIGIN LEVEL: 0
L2C AVERAGE MISS LATENCY: 34.4729 cycles
L2C RQ	ACCESS:    3767824	FORWARD:          0	MERGED:          0	TO_CACHE:    3767807
L2C WQ	ACCESS:     532789	FORWARD:         17	MERGED:          0	TO_CACHE:     532789
L2C PQ	ACCESS:     783421	FORWARD:          0	MERGED:       5767	TO_CACHE:     777654

L2C Instructions Evicting Data 189426
L2C Translations Evicting Data 1238
L2C Data Evicting Data 169214
L2C Instructions Evicting Instructions 268270
L2C Translations Evicting Instructions 727
L2C Data Evicting Instructions 183688
L2C Instructions Evicting Translations 759
L2C Translations Evicting Translations 16
L2C Data Evicting Translations 1204
L2C Dense regions hint from L2: 0
PSCL5 TOTAL     ACCESS:       2461  HIT:       2461  MISS:          0  HIT %:        100  MISS %:          0   MPKI: 0
PSCL5 LOAD TRANSLATION ACCESS:       2461  HIT:       2461  MISS:          0  HIT %:        100  MISS %:          0   MPKI: 0
PSCL5 PREFETCH  REQUESTED:          0  ISSUED:          0  USEFUL:          0  USELESS:          0
PSCL5 USEFUL LOAD PREFETCHES:          0 PREFETCH ISSUED TO LOWER LEVEL:          0  ACCURACY: -nan
PSCL5 TIMELY PREFETCHES:          0 LATE PREFETCHES: 0 DROPPED PREFETCHES: 0
PSCL5 PREFETCHES SAME FILL-ORIGIN LEVEL: 0 DIFFERENT FILL-ORIGIN LEVEL: 0

PSCL4 TOTAL     ACCESS:       2291  HIT:       2277  MISS:         14  HIT %:    99.3889  MISS %:   0.611087   MPKI: 0.00028
PSCL4 LOAD TRANSLATION ACCESS:       2291  HIT:       2277  MISS:         14  HIT %:    99.3889  MISS %:   0.611087   MPKI: 0.00028
PSCL4 PREFETCH  REQUESTED:          0  ISSUED:          0  USEFUL:          0  USELESS:          0
PSCL4 USEFUL LOAD PREFETCHES:          0 PREFETCH ISSUED TO LOWER LEVEL:          0  ACCURACY: -nan
PSCL4 TIMELY PREFETCHES:          0 LATE PREFETCHES: 0 DROPPED PREFETCHES: 0
PSCL4 PREFETCHES SAME FILL-ORIGIN LEVEL: 0 DIFFERENT FILL-ORIGIN LEVEL: 0

PSCL3 TOTAL     ACCESS:       2388  HIT:       2360  MISS:         28  HIT %:    98.8275  MISS %:    1.17253   MPKI: 0.00056
PSCL3 LOAD TRANSLATION ACCESS:       2388  HIT:       2360  MISS:         28  HIT %:    98.8275  MISS %:    1.17253   MPKI: 0.00056
PSCL3 PREFETCH  REQUESTED:          0  ISSUED:          0  USEFUL:          0  USELESS:          0
PSCL3 USEFUL LOAD PREFETCHES:          0 PREFETCH ISSUED TO LOWER LEVEL:          0  ACCURACY: -nan
PSCL3 TIMELY PREFETCHES:          0 LATE PREFETCHES: 0 DROPPED PREFETCHES: 0
PSCL3 PREFETCHES SAME FILL-ORIGIN LEVEL: 0 DIFFERENT FILL-ORIGIN LEVEL: 0

PSCL2 TOTAL     ACCESS:       2461  HIT:       2318  MISS:        143  HIT %:    94.1894  MISS %:    5.81065   MPKI: 0.00286
PSCL2 LOAD TRANSLATION ACCESS:       2461  HIT:       2318  MISS:        143  HIT %:    94.1894  MISS %:    5.81065   MPKI: 0.00286
PSCL2 PREFETCH  REQUESTED:          0  ISSUED:          0  USEFUL:          0  USELESS:          0
PSCL2 USEFUL LOAD PREFETCHES:          0 PREFETCH ISSUED TO LOWER LEVEL:          0  ACCURACY: -nan
PSCL2 TIMELY PREFETCHES:          0 LATE PREFETCHES: 0 DROPPED PREFETCHES: 0
PSCL2 PREFETCHES SAME FILL-ORIGIN LEVEL: 0 DIFFERENT FILL-ORIGIN LEVEL: 0

LLC TOTAL     ACCESS:     956623  HIT:     925758  MISS:      30865  HIT %:    96.7735  MISS %:    3.22645   MPKI: 0.6173
LLC LOAD      ACCESS:     569120  HIT:     564476  MISS:       4644  HIT %:     99.184  MISS %:   0.815997   MPKI: 0.09288
LLC RFO       ACCESS:      91109  HIT:      77123  MISS:      13986  HIT %:    84.6492  MISS %:    15.3508   MPKI: 0.27972
LLC PREFETCH  ACCESS:     152353  HIT:     141001  MISS:      11352  HIT %:    92.5489  MISS %:    7.45112   MPKI: 0.22704
LLC WRITEBACK ACCESS:     142060  HIT:     141343  MISS:        717  HIT %:    99.4953  MISS %:   0.504716   MPKI: 0.01434
LLC LOAD TRANSLATION ACCESS:       1981  HIT:       1815  MISS:        166  HIT %:    91.6204  MISS %:    8.37961   MPKI: 0.00332
LLC PREFETCH  REQUESTED:          0  ISSUED:          0  USEFUL:        889  USELESS:       5454
LLC USEFUL LOAD PREFETCHES:        889 PREFETCH ISSUED TO LOWER LEVEL:      11352  ACCURACY: 7.83122
LLC TIMELY PREFETCHES:        889 LATE PREFETCHES: 0 DROPPED PREFETCHES: 0
LLC PREFETCHES SAME FILL-ORIGIN LEVEL: 0 DIFFERENT FILL-ORIGIN LEVEL: 0
LLC AVERAGE MISS LATENCY: 127.393 cycles
LLC RQ	ACCESS:     662214	FORWARD:          0	MERGED:          0	TO_CACHE:     662210
LLC WQ	ACCESS:     142060	FORWARD:          4	MERGED:          0	TO_CACHE:     142060
LLC PQ	ACCESS:     152353	FORWARD:          0	MERGED:          0	TO_CACHE:     152353

LLC Dense regions hint to LLC: 0

RAW hits: 523777
Loads Generated: 12641353
Loads sent to L1D: 12117576
Stores Generated: 6952498
Stores sent to L1D: 6952503
Major fault: 0 Minor fault: 2266
Allocated PAGES: 2266

stream: 
stream:times selected: 1003882
stream:pref_filled: 119531
stream:pref_useful: 22744
stream:pref_late: 15717
stream:misses: 4836
stream:misses_by_poll: 0

CS: 
CS:times selected: 126983
CS:pref_filled: 53276
CS:pref_useful: 27735
CS:pref_late: 7095
CS:misses: 14114
CS:misses_by_poll: 10

CPLX: 
CPLX:times selected: 874547
CPLX:pref_filled: 22735
CPLX:pref_useful: 4259
CPLX:pref_late: 1167
CPLX:misses: 63959
CPLX:misses_by_poll: 0

NL_L1: 
NL:times selected: 5766
NL:pref_filled: 448
NL:pref_useful: 102
NL:pref_late: 6
NL:misses: 92
NL:misses_by_poll: 0

total selections: 2011178
total_filled: 169528
total_useful: 46298
total_late: 24224
total_polluted: 10
total_misses_after_warmup: 760560
conflicts: 3284012
Degree Incremented Times: 0
Degree Decremented Times: 112211

L1 IP Table Write Accesses: 5306531
L1 IP Table Read Accesses: 2022519
L1 RST Write Accesses: 847254
L1 RST Read Accesses: 1694508
L1 CSPT Write Accesses: 847254
L1 CSPT Read Accesses: 1584904
L1 RR Filter Tag Write Accesses: 523925
L1 RR Filter Tag Read Accesses: 37606273
L1 IP Table Tag Write Accesses: 8887343
L1 IP Table Tag Read Accesses: 8887343
L1 RST Tag Write Accesses: 0
L1 RST Tag Read Accesses: 7639415
L1 RR Filter Write Accesses: 0
L1 RR Filter Read Accesses: 1387172
test: 144362
L2 IP Table Read Accesses: 1114186
L2 IP Table Write Accesses: 1563818
L2 IP Table Tag Read Accesses: 867131
L2 IP Table Tag Write Accesses: 867131

DRAM Statistics
 CHANNEL 0
 RQ ROW_BUFFER_HIT:      15340  ROW_BUFFER_MISS:      14803
 DBUS_CONGESTED:         17
 WQ ROW_BUFFER_HIT:        995  ROW_BUFFER_MISS:       6170  FULL:          0

 AVG_CONGESTED_CYCLE: 7
 All warmup complete: 2
Channel 0 Bank busy for read cycles: 0
Channel 0 Bank busy for write cycles: 0
Channel 0
Rank 0
0banks busy for read cycles: 124657845
0banks busy for write cycles: 2126
1banks busy for read cycles: 632983
1banks busy for write cycles: 243835
2banks busy for read cycles: 412317
2banks busy for write cycles: 84048
3banks busy for read cycles: 85417
3banks busy for write cycles: 34807
4banks busy for read cycles: 71313
4banks busy for write cycles: 23136
5banks busy for read cycles: 43577
5banks busy for write cycles: 16440
6banks busy for read cycles: 33694
6banks busy for write cycles: 12522
7banks busy for read cycles: 27467
7banks busy for write cycles: 13625
8banks busy for read cycles: 47551
8banks busy for write cycles: 35701

CPU 0 Branch Prediction Accuracy: 91.5878% MPKI: 15.3805 Average ROB Occupancy at Mispredict: 17.0767
Branch types
NOT_BRANCH: 40857901 81.7158%
BRANCH_DIRECT_JUMP: 527165 1.05433%
BRANCH_INDIRECT: 205601 0.411202%
BRANCH_CONDITIONAL: 6180687 12.3614%
BRANCH_DIRECT_CALL: 939434 1.87887%
BRANCH_INDIRECT_CALL: 174709 0.349418%
BRANCH_RETURN: 1114151 2.2283%
BRANCH_OTHER: 0 0%

@sumon_overall_L1D     46298     28308     28308    123220    169528   1047648   1047648
@Sumon_Early_by_class_L1D     18640     23101      3394         3
@Sumon_Late_by_class_L1D     14875      6756       917         3

@Sumon_Early_by_cycle_L1D     28742      3288      2298      3147       376      1160       952      1791      1258      2231       843       212
@Sumon_Late_by_cycle_L1D      9247      8158      2656      1771       926         4
@Sumon_Early_stream_L1D      5854      1940      1730      2635       247       968       726      1343       849      1469       708       171
@Sumon_Early_CS_L1D     21172      1055       413        66         7        35         5       271         7        28        10        32
@Sumon_Early_CPLX_L1D      1421       172       114       387        91       143       212       155       236       334       120         9
@Sumon_Late_stream_L1D      6018      6714      1933        64       146         0
@Sumon_Late_CS_L1D      2720       969       615      1694       754         4
@Sumon_Late_CPLX_L1D       342       465        78        10        22         0
@sumon_overall_L2C     24449      2175         0    125759    150178    613496    613496
@Sumon_Early_by_class_L2C      1797       191       390         0
@Sumon_Late_by_class_L2C         0         0         0         0

@Sumon_Early_by_cycle_L2C      4377      3091      2269      1356       384      2358      1999      1396       823      1199       997      4200
@Sumon_Late_by_cycle_L2C       504       865       412        88       306         0
@Sumon_Early_stream_L2C         0         0         0         0         0         0         0         0         0         5       298      1494
@Sumon_Early_CS_L2C         0         0         0         0         0         0         0         0         0         0         3       188
@Sumon_Early_CPLX_L2C         0         0         0         0         0         0         0         0         0         1        27       362
@Sumon_Late_stream_L2C         0         0         0         0         0         0
@Sumon_Late_CS_L2C         0         0         0         0         0         0
@Sumon_Late_CPLX_L2C         0         0         0         0         0         0
DRAM PAGES: 1048576
Allocated PAGES: 2266
