
*** ChampSim Multicore Out-of-Order Simulator ***

Warmup Instructions: 10000000
Simulation Instructions: 50000000
Number of CPUs: 1
LLC sets: 2048
LLC ways: 16
Off-chip DRAM Size: 4096 MB Channels: 1 Width: 64-bit Data Rate: 6400 MT/s
CPU 0 runs traces/clientserver/server_038.champsimtrace.xz
.xz
CPU 0 Bimodal branch predictor
BTB has LRU replacement policy
ITLB has LRU replacement policy
DTLB has LRU replacement policy
STLB has LRU replacement policy
L1I has LRU replacement policy
IP Table Entries: 256
L1D has LRU replacement policy
IP_Table L2 entries: 256
L2C has LRU replacement policy
Initialize Hawkeye state
Heartbeat CPU 0 instructions: 10000001 cycles: 2752380 heartbeat IPC: 3.63322 cumulative IPC: 3.63322 (Simulation time: 0 hr 20 min 15 sec) 

Warmup complete CPU 0 instructions: 10000001 cycles: 2752380 (Simulation time: 0 hr 20 min 15 sec) 

Heartbeat CPU 0 instructions: 20000001 cycles: 20727614 heartbeat IPC: 0.556321 cumulative IPC: 0.556321 (Simulation time: 0 hr 37 min 48 sec) 
Heartbeat CPU 0 instructions: 30000003 cycles: 38665992 heartbeat IPC: 0.557464 cumulative IPC: 0.556892 (Simulation time: 0 hr 55 min 27 sec) 
Heartbeat CPU 0 instructions: 40000002 cycles: 56613773 heartbeat IPC: 0.557172 cumulative IPC: 0.556985 (Simulation time: 1 hr 13 min 12 sec) 
Heartbeat CPU 0 instructions: 50000003 cycles: 74537038 heartbeat IPC: 0.557934 cumulative IPC: 0.557222 (Simulation time: 1 hr 29 min 31 sec) 
Heartbeat CPU 0 instructions: 60000000 cycles: 92465612 heartbeat IPC: 0.557769 cumulative IPC: 0.557331 (Simulation time: 1 hr 43 min 1 sec) 
Finished CPU 0 instructions: 50000000 cycles: 89713236 cumulative IPC: 0.557331 (Simulation time: 1 hr 43 min 1 sec) 

ChampSim completed all CPUs

Region of Interest Statistics

CPU 0 cumulative IPC: 0.557331 instructions: 50000000 cycles: 89713236
ITLB TOTAL     ACCESS:    8847898  HIT:    8213302  MISS:     634596  HIT %:    92.8277  MISS %:    7.17228   MPKI: 12.6919
ITLB LOAD TRANSLATION ACCESS:    8847898  HIT:    8213302  MISS:     634596  HIT %:    92.8277  MISS %:    7.17228   MPKI: 12.6919
ITLB PREFETCH  REQUESTED:          0  ISSUED:          0  USEFUL:          0  USELESS:          0
ITLB USEFUL LOAD PREFETCHES:          0 PREFETCH ISSUED TO LOWER LEVEL:          0  ACCURACY: -nan
ITLB TIMELY PREFETCHES:          0 LATE PREFETCHES: 0 DROPPED PREFETCHES: 0
ITLB PREFETCHES SAME FILL-ORIGIN LEVEL: 0 DIFFERENT FILL-ORIGIN LEVEL: 0
ITLB AVERAGE MISS LATENCY: 9.05119 cycles
ITLB RQ	ACCESS:   10676604	FORWARD:          0	MERGED:    1630608	TO_CACHE:    9045996

DTLB TOTAL     ACCESS:   10915541  HIT:   10393949  MISS:     521592  HIT %:    95.2216  MISS %:    4.77843   MPKI: 10.4318
DTLB LOAD TRANSLATION ACCESS:   10915541  HIT:   10393949  MISS:     521592  HIT %:    95.2216  MISS %:    4.77843   MPKI: 10.4318
DTLB PREFETCH  REQUESTED:          0  ISSUED:          0  USEFUL:          0  USELESS:          0
DTLB USEFUL LOAD PREFETCHES:          0 PREFETCH ISSUED TO LOWER LEVEL:          0  ACCURACY: -nan
DTLB TIMELY PREFETCHES:          0 LATE PREFETCHES: 0 DROPPED PREFETCHES: 0
DTLB PREFETCHES SAME FILL-ORIGIN LEVEL: 0 DIFFERENT FILL-ORIGIN LEVEL: 0
DTLB AVERAGE MISS LATENCY: 10.2606 cycles
DTLB RQ	ACCESS:   14522664	FORWARD:          0	MERGED:    3568645	TO_CACHE:   10954019

STLB TOTAL     ACCESS:    1277478  HIT:    1271379  MISS:       6099  HIT %:    99.5226  MISS %:   0.477425   MPKI: 0.12198
STLB LOAD TRANSLATION ACCESS:    1156188  HIT:    1150089  MISS:       6099  HIT %:    99.4725  MISS %:   0.527509   MPKI: 0.12198
STLB TRANSLATION FROM L1D PREFETCHER ACCESS:     121290  HIT:     121290  MISS:          0  HIT %:        100  MISS %:          0   MPKI: 0
STLB PREFETCH  REQUESTED:          0  ISSUED:          0  USEFUL:          0  USELESS:          0
STLB USEFUL LOAD PREFETCHES:          0 PREFETCH ISSUED TO LOWER LEVEL:          0  ACCURACY: -nan
STLB TIMELY PREFETCHES:          0 LATE PREFETCHES: 0 DROPPED PREFETCHES: 0
STLB PREFETCHES SAME FILL-ORIGIN LEVEL: 0 DIFFERENT FILL-ORIGIN LEVEL: 0
STLB AVERAGE MISS LATENCY: 109.553 cycles
STLB RQ	ACCESS:    1363433	FORWARD:          0	MERGED:      85955	TO_CACHE:    1277478

STLB Hit, L1D data hit: 0
STLB Hit, L2C data hit: 0
STLB Hit, LLC data hit: 0
STLB Hit, LLC data miss: 0
STLB STLB hints to L2: 0
L1D TOTAL     ACCESS:   14624979  HIT:   14116693  MISS:     508286  HIT %:    96.5245  MISS %:    3.47546   MPKI: 10.1657
L1D LOAD      ACCESS:    8119283  HIT:    7732200  MISS:     387083  HIT %:    95.2325  MISS %:    4.76745   MPKI: 7.74166
L1D RFO       ACCESS:    6305665  HIT:    6239171  MISS:      66494  HIT %:    98.9455  MISS %:    1.05451   MPKI: 1.32988
L1D PREFETCH  ACCESS:     200031  HIT:     145322  MISS:      54709  HIT %:    72.6497  MISS %:    27.3503   MPKI: 1.09418
L1D PREFETCH  REQUESTED:     414589  ISSUED:     414571  USEFUL:      15239  USELESS:      39471
L1D USEFUL LOAD PREFETCHES:      15239 PREFETCH ISSUED TO LOWER LEVEL:      54709  ACCURACY: 27.8546
L1D TIMELY PREFETCHES:      15239 LATE PREFETCHES: 1659 DROPPED PREFETCHES: 0
L1D PREFETCHES SAME FILL-ORIGIN LEVEL: 54709 DIFFERENT FILL-ORIGIN LEVEL: 0
L1D AVERAGE MISS LATENCY: 33.5514 cycles
L1D RQ	ACCESS:   11828447	FORWARD:          0	MERGED:    3522302	TO_CACHE:    8142025
L1D WQ	ACCESS:    6426250	FORWARD:     164201	MERGED:      45611	TO_CACHE:    6380639
L1D PQ	ACCESS:     207326	FORWARD:          0	MERGED:          0	TO_CACHE:     207245

L1D UNIQUE REGIONS ACCESSED: 0
L1D REGIONS CONFLICTS: 0
L1D Cross Page Prefetch Requests: 0
L1D Same Page Prefetch Requests: 241976
L1D ROI Sum of L1D PQ occupancy: 2712005
L1D PREFETCHES PUSHED FROM L2C: 0
L1I TOTAL     ACCESS:    9645612  HIT:    5598893  MISS:    4046719  HIT %:     58.046  MISS %:     41.954   MPKI: 80.9344
L1I LOAD      ACCESS:    9645612  HIT:    5598893  MISS:    4046719  HIT %:     58.046  MISS %:     41.954   MPKI: 80.9344
L1I PREFETCH  REQUESTED:          0  ISSUED:          0  USEFUL:          0  USELESS:          0
L1I USEFUL LOAD PREFETCHES:          0 PREFETCH ISSUED TO LOWER LEVEL:          0  ACCURACY: -nan
L1I TIMELY PREFETCHES:          0 LATE PREFETCHES: 0 DROPPED PREFETCHES: 0
L1I PREFETCHES SAME FILL-ORIGIN LEVEL: 0 DIFFERENT FILL-ORIGIN LEVEL: 0
L1I AVERAGE MISS LATENCY: 14.157 cycles
L1I RQ	ACCESS:   14765055	FORWARD:          0	MERGED:    4088451	TO_CACHE:   10676604

BTB TOTAL     ACCESS:    5367160  HIT:    4843603  MISS:     523557  HIT %:    90.2452  MISS %:    9.75482   MPKI: 10.4711
BTB BRANCH_DIRECT_JUMP	ACCESS:     541712  HIT:     529168  MISS:      12544
BTB BRANCH_INDIRECT	ACCESS:      59661  HIT:      59563  MISS:         98
BTB BRANCH_CONDITIONAL	ACCESS:    2287820  HIT:    2245521  MISS:      42299
BTB BRANCH_DIRECT_CALL	ACCESS:    1004491  HIT:     966931  MISS:      37560
BTB BRANCH_INDIRECT_CALL	ACCESS:     234493  HIT:     188817  MISS:      45676
BTB BRANCH_RETURN	ACCESS:    1238983  HIT:     853603  MISS:     385380
BTB BRANCH_OTHER ACCESS:          0  HIT:          0  MISS:          0

L2C TOTAL     ACCESS:    5099559  HIT:    4821308  MISS:     278251  HIT %:    94.5436  MISS %:    5.45637   MPKI: 5.56502
L2C LOAD      ACCESS:    4433797  HIT:    4288101  MISS:     145696  HIT %:     96.714  MISS %:    3.28603   MPKI: 2.91392
L2C DATA LOAD MPKI: 2.76464
L2C INSTRUCTION LOAD MPKI: 0.14928
L2C RFO       ACCESS:      66494  HIT:      37969  MISS:      28525  HIT %:    57.1014  MISS %:    42.8986   MPKI: 0.5705
L2C PREFETCH  ACCESS:     351128  HIT:     253800  MISS:      97328  HIT %:    72.2813  MISS %:    27.7187   MPKI: 1.94656
L2C DATA PREFETCH MPKI: 1.94656
L2C INSTRUCTION PREFETCH MPKI: 0
L2C WRITEBACK ACCESS:     239723  HIT:     238807  MISS:        916  HIT %:    99.6179  MISS %:   0.382108   MPKI: 0.01832
L2C LOAD TRANSLATION ACCESS:       8417  HIT:       2631  MISS:       5786  HIT %:    31.2582  MISS %:    68.7418   MPKI: 0.11572
L2C PREFETCH  REQUESTED:     315908  ISSUED:     315908  USEFUL:      35723  USELESS:      61589
L2C USEFUL LOAD PREFETCHES:      35723 PREFETCH ISSUED TO LOWER LEVEL:      97931  ACCURACY: 36.4777
L2C TIMELY PREFETCHES:      35723 LATE PREFETCHES: 603 DROPPED PREFETCHES: 0
L2C PREFETCHES SAME FILL-ORIGIN LEVEL: 79974 DIFFERENT FILL-ORIGIN LEVEL: 0
L2C AVERAGE MISS LATENCY: 47.0813 cycles
L2C RQ	ACCESS:    4508713	FORWARD:          0	MERGED:          0	TO_CACHE:    4508708
L2C WQ	ACCESS:     239723	FORWARD:          6	MERGED:          0	TO_CACHE:     239723
L2C PQ	ACCESS:     370617	FORWARD:          0	MERGED:       7694	TO_CACHE:     362922

L2C Instructions Evicting Data 6866
L2C Translations Evicting Data 5452
L2C Data Evicting Data 251851
L2C Instructions Evicting Instructions 472
L2C Translations Evicting Instructions 141
L2C Data Evicting Instructions 6780
L2C Instructions Evicting Translations 126
L2C Translations Evicting Translations 193
L2C Data Evicting Translations 5453
L2C Dense regions hint from L2: 0
PSCL5 TOTAL     ACCESS:       6099  HIT:       6099  MISS:          0  HIT %:        100  MISS %:          0   MPKI: 0
PSCL5 LOAD TRANSLATION ACCESS:       6099  HIT:       6099  MISS:          0  HIT %:        100  MISS %:          0   MPKI: 0
PSCL5 PREFETCH  REQUESTED:          0  ISSUED:          0  USEFUL:          0  USELESS:          0
PSCL5 USEFUL LOAD PREFETCHES:          0 PREFETCH ISSUED TO LOWER LEVEL:          0  ACCURACY: -nan
PSCL5 TIMELY PREFETCHES:          0 LATE PREFETCHES: 0 DROPPED PREFETCHES: 0
PSCL5 PREFETCHES SAME FILL-ORIGIN LEVEL: 0 DIFFERENT FILL-ORIGIN LEVEL: 0

PSCL4 TOTAL     ACCESS:       6022  HIT:       6019  MISS:          3  HIT %:    99.9502  MISS %:  0.0498173   MPKI: 6e-05
PSCL4 LOAD TRANSLATION ACCESS:       6022  HIT:       6019  MISS:          3  HIT %:    99.9502  MISS %:  0.0498173   MPKI: 6e-05
PSCL4 PREFETCH  REQUESTED:          0  ISSUED:          0  USEFUL:          0  USELESS:          0
PSCL4 USEFUL LOAD PREFETCHES:          0 PREFETCH ISSUED TO LOWER LEVEL:          0  ACCURACY: -nan
PSCL4 TIMELY PREFETCHES:          0 LATE PREFETCHES: 0 DROPPED PREFETCHES: 0
PSCL4 PREFETCHES SAME FILL-ORIGIN LEVEL: 0 DIFFERENT FILL-ORIGIN LEVEL: 0

PSCL3 TOTAL     ACCESS:       6068  HIT:       6038  MISS:         30  HIT %:    99.5056  MISS %:   0.494397   MPKI: 0.0006
PSCL3 LOAD TRANSLATION ACCESS:       6068  HIT:       6038  MISS:         30  HIT %:    99.5056  MISS %:   0.494397   MPKI: 0.0006
PSCL3 PREFETCH  REQUESTED:          0  ISSUED:          0  USEFUL:          0  USELESS:          0
PSCL3 USEFUL LOAD PREFETCHES:          0 PREFETCH ISSUED TO LOWER LEVEL:          0  ACCURACY: -nan
PSCL3 TIMELY PREFETCHES:          0 LATE PREFETCHES: 0 DROPPED PREFETCHES: 0
PSCL3 PREFETCHES SAME FILL-ORIGIN LEVEL: 0 DIFFERENT FILL-ORIGIN LEVEL: 0

PSCL2 TOTAL     ACCESS:       6099  HIT:       3785  MISS:       2314  HIT %:    62.0594  MISS %:    37.9406   MPKI: 0.04628
PSCL2 LOAD TRANSLATION ACCESS:       6099  HIT:       3785  MISS:       2314  HIT %:    62.0594  MISS %:    37.9406   MPKI: 0.04628
PSCL2 PREFETCH  REQUESTED:          0  ISSUED:          0  USEFUL:          0  USELESS:          0
PSCL2 USEFUL LOAD PREFETCHES:          0 PREFETCH ISSUED TO LOWER LEVEL:          0  ACCURACY: -nan
PSCL2 TIMELY PREFETCHES:          0 LATE PREFETCHES: 0 DROPPED PREFETCHES: 0
PSCL2 PREFETCHES SAME FILL-ORIGIN LEVEL: 0 DIFFERENT FILL-ORIGIN LEVEL: 0

LLC TOTAL     ACCESS:     404914  HIT:     371893  MISS:      33021  HIT %:    91.8449  MISS %:    8.15507   MPKI: 0.66042
LLC LOAD      ACCESS:     145092  HIT:     130752  MISS:      14340  HIT %:    90.1166  MISS %:    9.88338   MPKI: 0.2868
LLC RFO       ACCESS:      28525  HIT:      22393  MISS:       6132  HIT %:    78.5031  MISS %:    21.4969   MPKI: 0.12264
LLC PREFETCH  ACCESS:      97931  HIT:      88346  MISS:       9585  HIT %:    90.2125  MISS %:     9.7875   MPKI: 0.1917
LLC WRITEBACK ACCESS:     127580  HIT:     125087  MISS:       2493  HIT %:    98.0459  MISS %:    1.95407   MPKI: 0.04986
LLC LOAD TRANSLATION ACCESS:       5786  HIT:       5315  MISS:        471  HIT %:    91.8597  MISS %:    8.14034   MPKI: 0.00942
LLC PREFETCH  REQUESTED:          0  ISSUED:          0  USEFUL:        415  USELESS:       4575
LLC USEFUL LOAD PREFETCHES:        415 PREFETCH ISSUED TO LOWER LEVEL:       9585  ACCURACY: 4.32968
LLC TIMELY PREFETCHES:        415 LATE PREFETCHES: 0 DROPPED PREFETCHES: 0
LLC PREFETCHES SAME FILL-ORIGIN LEVEL: 0 DIFFERENT FILL-ORIGIN LEVEL: 0
LLC AVERAGE MISS LATENCY: 144.465 cycles
LLC RQ	ACCESS:     179404	FORWARD:          0	MERGED:          0	TO_CACHE:     179403
LLC WQ	ACCESS:     127580	FORWARD:          1	MERGED:          0	TO_CACHE:     127580
LLC PQ	ACCESS:      97931	FORWARD:          0	MERGED:          0	TO_CACHE:      97931

LLC Dense regions hint to LLC: 0

RAW hits: 722335
Loads Generated: 12550783
Loads sent to L1D: 11828447
Stores Generated: 6426241
Stores sent to L1D: 6426250
Major fault: 0 Minor fault: 4744
Allocated PAGES: 4744

stream: 
stream:times selected: 197209
stream:pref_filled: 31272
stream:pref_useful: 10275
stream:pref_late: 258
stream:misses: 54
stream:misses_by_poll: 0

CS: 
CS:times selected: 5458
CS:pref_filled: 1921
CS:pref_useful: 443
CS:pref_late: 1432
CS:misses: 1594
CS:misses_by_poll: 0

CPLX: 
CPLX:times selected: 189452
CPLX:pref_filled: 27311
CPLX:pref_useful: 5734
CPLX:pref_late: 166
CPLX:misses: 3645
CPLX:misses_by_poll: 5

NL_L1: 
NL:times selected: 4060
NL:pref_filled: 194
NL:pref_useful: 34
NL:pref_late: 1
NL:misses: 0
NL:misses_by_poll: 0

total selections: 396179
total_filled: 54709
total_useful: 15239
total_late: 1863
total_polluted: 5
total_misses_after_warmup: 409828
conflicts: 3729516
Degree Incremented Times: 1
Degree Decremented Times: 104131

L1 IP Table Write Accesses: 4247491
L1 IP Table Read Accesses: 517975
L1 RST Write Accesses: 168035
L1 RST Read Accesses: 336070
L1 CSPT Write Accesses: 168035
L1 CSPT Read Accesses: 330143
L1 RR Filter Tag Write Accesses: 207344
L1 RR Filter Tag Read Accesses: 9253854
L1 IP Table Tag Write Accesses: 8142028
L1 IP Table Tag Read Accesses: 8142028
L1 RST Tag Write Accesses: 0
L1 RST Tag Read Accesses: 1783051
L1 RR Filter Write Accesses: 0
L1 RR Filter Read Accesses: 300660
test: 69200
L2 IP Table Read Accesses: 554592
L2 IP Table Write Accesses: 740440
L2 IP Table Tag Read Accesses: 436063
L2 IP Table Tag Write Accesses: 436063

DRAM Statistics
 CHANNEL 0
 RQ ROW_BUFFER_HIT:       6882  ROW_BUFFER_MISS:      23644
 DBUS_CONGESTED:          2
 WQ ROW_BUFFER_HIT:        830  ROW_BUFFER_MISS:       7099  FULL:          0

 AVG_CONGESTED_CYCLE: 2
 All warmup complete: 2
Channel 0 Bank busy for read cycles: 0
Channel 0 Bank busy for write cycles: 0
Channel 0
Rank 0
0banks busy for read cycles: 86185568
0banks busy for write cycles: 5426
1banks busy for read cycles: 1455830
1banks busy for write cycles: 817119
2banks busy for read cycles: 869035
2banks busy for write cycles: 165467
3banks busy for read cycles: 91981
3banks busy for write cycles: 26612
4banks busy for read cycles: 21912
4banks busy for write cycles: 13594
5banks busy for read cycles: 10116
5banks busy for write cycles: 5860
6banks busy for read cycles: 9160
6banks busy for write cycles: 2357
7banks busy for read cycles: 10891
7banks busy for write cycles: 1015
8banks busy for read cycles: 19071
8banks busy for write cycles: 2223

CPU 0 Branch Prediction Accuracy: 96.3715% MPKI: 6.52798 Average ROB Occupancy at Mispredict: 21.7589
Branch types
NOT_BRANCH: 41004141 82.0083%
BRANCH_DIRECT_JUMP: 541712 1.08342%
BRANCH_INDIRECT: 59661 0.119322%
BRANCH_CONDITIONAL: 5916196 11.8324%
BRANCH_DIRECT_CALL: 1004491 2.00898%
BRANCH_INDIRECT_CALL: 234493 0.468986%
BRANCH_RETURN: 1238983 2.47797%
BRANCH_OTHER: 0 0%

@sumon_overall_L1D     15239      1659      1659     39471     54709    414571    414589
@Sumon_Early_by_class_L1D      8472       209      4818         0
@Sumon_Late_by_class_L1D        63      1432       101         0

@Sumon_Early_by_cycle_L1D      1010       427        33        11       341      3286       567      1415      5953      1917       204        75
@Sumon_Late_by_cycle_L1D        92        65        44       503       892         2
@Sumon_Early_stream_L1D       512        97        15         9        46      1737       417       686      3751      1154        34        14
@Sumon_Early_CS_L1D       178        30         1         0         0         0         0         0         0         0         0         0
@Sumon_Early_CPLX_L1D       225       267         8         1         1      1074        92       660      2099       206       126        59
@Sumon_Late_stream_L1D        10        30         0         3        20         0
@Sumon_Late_CS_L1D        11        17        37       496       869         2
@Sumon_Late_CPLX_L1D        71        17         7         4         2         0
@sumon_overall_L2C     35723       603         0     61589     97328    315908    315908
@Sumon_Early_by_class_L2C       812         1       678         0
@Sumon_Late_by_class_L2C         0        40         0         0

@Sumon_Early_by_cycle_L2C      2915      3863      7342      1036      2145      7917      1196       711      1274      3163       226      3935
@Sumon_Late_by_cycle_L2C       418        26        65        33        61         0
@Sumon_Early_stream_L2C         0         0         0         0         0         0         0         4        77         5         0       726
@Sumon_Early_CS_L2C         1         0         0         0         0         0         0         0         0         0         0         0
@Sumon_Early_CPLX_L2C         0         0         0         0         0         0         0         0         8        16         3       651
@Sumon_Late_stream_L2C         0         0         0         0         0         0
@Sumon_Late_CS_L2C         0         5         9         9        17         0
@Sumon_Late_CPLX_L2C         0         0         0         0         0         0
DRAM PAGES: 1048576
Allocated PAGES: 4744
