
*** ChampSim Multicore Out-of-Order Simulator ***

Warmup Instructions: 10000000
Simulation Instructions: 50000000
Number of CPUs: 1
LLC sets: 2048
LLC ways: 16
Off-chip DRAM Size: 4096 MB Channels: 1 Width: 64-bit Data Rate: 6400 MT/s
CPU 0 runs traces/clientserver/server_026.champsimtrace.xz
.xz
CPU 0 Bimodal branch predictor
BTB has LRU replacement policy
ITLB has LRU replacement policy
DTLB has LRU replacement policy
STLB has LRU replacement policy
L1I has LRU replacement policy
IP Table Entries: 256
L1D has LRU replacement policy
IP_Table L2 entries: 256
L2C has LRU replacement policy
Initialize Hawkeye state
Heartbeat CPU 0 instructions: 10000000 cycles: 2884961 heartbeat IPC: 3.46625 cumulative IPC: 3.46625 (Simulation time: 0 hr 20 min 54 sec) 

Warmup complete CPU 0 instructions: 10000001 cycles: 2884962 (Simulation time: 0 hr 20 min 54 sec) 

Heartbeat CPU 0 instructions: 20000002 cycles: 28035979 heartbeat IPC: 0.397598 cumulative IPC: 0.397598 (Simulation time: 0 hr 39 min 46 sec) 
Heartbeat CPU 0 instructions: 30000000 cycles: 53158055 heartbeat IPC: 0.398056 cumulative IPC: 0.397827 (Simulation time: 0 hr 58 min 34 sec) 
Heartbeat CPU 0 instructions: 40000002 cycles: 78263455 heartbeat IPC: 0.398321 cumulative IPC: 0.397992 (Simulation time: 1 hr 17 min 2 sec) 
Heartbeat CPU 0 instructions: 50000000 cycles: 103282755 heartbeat IPC: 0.399691 cumulative IPC: 0.398415 (Simulation time: 1 hr 33 min 41 sec) 
*** Reached end of trace for Core: 0 Repeating trace: traces/clientserver/server_026.champsimtrace.xz
Heartbeat CPU 0 instructions: 60000000 cycles: 128428530 heartbeat IPC: 0.397681 cumulative IPC: 0.398268 (Simulation time: 1 hr 46 min 32 sec) 
Finished CPU 0 instructions: 50000001 cycles: 125543576 cumulative IPC: 0.398268 (Simulation time: 1 hr 46 min 32 sec) 

ChampSim completed all CPUs

Region of Interest Statistics

CPU 0 cumulative IPC: 0.398268 instructions: 50000001 cycles: 125543576
ITLB TOTAL     ACCESS:    8443071  HIT:    7955924  MISS:     487147  HIT %:    94.2302  MISS %:    5.76978   MPKI: 9.74294
ITLB LOAD TRANSLATION ACCESS:    8443071  HIT:    7955924  MISS:     487147  HIT %:    94.2302  MISS %:    5.76978   MPKI: 9.74294
ITLB PREFETCH  REQUESTED:          0  ISSUED:          0  USEFUL:          0  USELESS:          0
ITLB USEFUL LOAD PREFETCHES:          0 PREFETCH ISSUED TO LOWER LEVEL:          0  ACCURACY: -nan
ITLB TIMELY PREFETCHES:          0 LATE PREFETCHES: 0 DROPPED PREFETCHES: 0
ITLB PREFETCHES SAME FILL-ORIGIN LEVEL: 0 DIFFERENT FILL-ORIGIN LEVEL: 0
ITLB AVERAGE MISS LATENCY: 9.06248 cycles
ITLB RQ	ACCESS:   10070775	FORWARD:          0	MERGED:    1504174	TO_CACHE:    8566601

DTLB TOTAL     ACCESS:   12587152  HIT:   12110147  MISS:     477005  HIT %:    96.2104  MISS %:    3.78962   MPKI: 9.5401
DTLB LOAD TRANSLATION ACCESS:   12587152  HIT:   12110147  MISS:     477005  HIT %:    96.2104  MISS %:    3.78962   MPKI: 9.5401
DTLB PREFETCH  REQUESTED:          0  ISSUED:          0  USEFUL:          0  USELESS:          0
DTLB USEFUL LOAD PREFETCHES:          0 PREFETCH ISSUED TO LOWER LEVEL:          0  ACCURACY: -nan
DTLB TIMELY PREFETCHES:          0 LATE PREFETCHES: 0 DROPPED PREFETCHES: 0
DTLB PREFETCHES SAME FILL-ORIGIN LEVEL: 0 DIFFERENT FILL-ORIGIN LEVEL: 0
DTLB AVERAGE MISS LATENCY: 9.38347 cycles
DTLB RQ	ACCESS:   15694606	FORWARD:          0	MERGED:    3087166	TO_CACHE:   12607440

STLB TOTAL     ACCESS:    1399398  HIT:    1397162  MISS:       2236  HIT %:    99.8402  MISS %:   0.159783   MPKI: 0.04472
STLB LOAD TRANSLATION ACCESS:     964152  HIT:     961916  MISS:       2236  HIT %:    99.7681  MISS %:   0.231914   MPKI: 0.04472
STLB TRANSLATION FROM L1D PREFETCHER ACCESS:     435246  HIT:     435246  MISS:          0  HIT %:        100  MISS %:          0   MPKI: 0
STLB PREFETCH  REQUESTED:          0  ISSUED:          0  USEFUL:          0  USELESS:          0
STLB USEFUL LOAD PREFETCHES:          0 PREFETCH ISSUED TO LOWER LEVEL:          0  ACCURACY: -nan
STLB TIMELY PREFETCHES:          0 LATE PREFETCHES: 0 DROPPED PREFETCHES: 0
STLB PREFETCHES SAME FILL-ORIGIN LEVEL: 0 DIFFERENT FILL-ORIGIN LEVEL: 0
STLB AVERAGE MISS LATENCY: 90.9231 cycles
STLB RQ	ACCESS:    1526225	FORWARD:          0	MERGED:     126827	TO_CACHE:    1399398

STLB Hit, L1D data hit: 0
STLB Hit, L2C data hit: 0
STLB Hit, LLC data hit: 0
STLB Hit, LLC data miss: 0
STLB STLB hints to L2: 0
L1D TOTAL     ACCESS:   15692870  HIT:   14495999  MISS:    1196871  HIT %:    92.3732  MISS %:    7.62685   MPKI: 23.9374
L1D LOAD      ACCESS:    8757223  HIT:    8059600  MISS:     697623  HIT %:    92.0337  MISS %:    7.96626   MPKI: 13.9525
L1D RFO       ACCESS:    6388498  HIT:    6091465  MISS:     297033  HIT %:    95.3505  MISS %:     4.6495   MPKI: 5.94066
L1D PREFETCH  ACCESS:     547149  HIT:     344934  MISS:     202215  HIT %:    63.0421  MISS %:    36.9579   MPKI: 4.0443
L1D PREFETCH  REQUESTED:    1124386  ISSUED:    1124386  USEFUL:      58001  USELESS:     144198
L1D USEFUL LOAD PREFETCHES:      58001 PREFETCH ISSUED TO LOWER LEVEL:     202672  ACCURACY: 28.6182
L1D TIMELY PREFETCHES:      58001 LATE PREFETCHES: 51755 DROPPED PREFETCHES: 0
L1D PREFETCHES SAME FILL-ORIGIN LEVEL: 202672 DIFFERENT FILL-ORIGIN LEVEL: 0
L1D AVERAGE MISS LATENCY: 25434.7 cycles
L1D RQ	ACCESS:   12103135	FORWARD:          0	MERGED:    3148234	TO_CACHE:    8841476
L1D WQ	ACCESS:    6899106	FORWARD:     113665	MERGED:      45976	TO_CACHE:    6853130
L1D PQ	ACCESS:     562313	FORWARD:          0	MERGED:          0	TO_CACHE:     562073

L1D UNIQUE REGIONS ACCESSED: 0
L1D REGIONS CONFLICTS: 0
L1D Cross Page Prefetch Requests: 0
L1D Same Page Prefetch Requests: 667381
L1D ROI Sum of L1D PQ occupancy: 7243113
L1D PREFETCHES PUSHED FROM L2C: 0
L1I TOTAL     ACCESS:    9609552  HIT:    6875041  MISS:    2734511  HIT %:    71.5438  MISS %:    28.4562   MPKI: 54.6902
L1I LOAD      ACCESS:    9609552  HIT:    6875041  MISS:    2734511  HIT %:    71.5438  MISS %:    28.4562   MPKI: 54.6902
L1I PREFETCH  REQUESTED:          0  ISSUED:          0  USEFUL:          0  USELESS:          0
L1I USEFUL LOAD PREFETCHES:          0 PREFETCH ISSUED TO LOWER LEVEL:          0  ACCURACY: -nan
L1I TIMELY PREFETCHES:          0 LATE PREFETCHES: 0 DROPPED PREFETCHES: 0
L1I PREFETCHES SAME FILL-ORIGIN LEVEL: 0 DIFFERENT FILL-ORIGIN LEVEL: 0
L1I AVERAGE MISS LATENCY: 18.9389 cycles
L1I RQ	ACCESS:   13813424	FORWARD:          0	MERGED:    3742649	TO_CACHE:   10070775

BTB TOTAL     ACCESS:    5982230  HIT:    3991090  MISS:    1991140  HIT %:    66.7158  MISS %:    33.2842   MPKI: 39.8228
BTB BRANCH_DIRECT_JUMP	ACCESS:     522633  HIT:     348042  MISS:     174591
BTB BRANCH_INDIRECT	ACCESS:     204723  HIT:     167232  MISS:      37491
BTB BRANCH_CONDITIONAL	ACCESS:    3049093  HIT:    2491585  MISS:     557508
BTB BRANCH_DIRECT_CALL	ACCESS:     929734  HIT:     525672  MISS:     404062
BTB BRANCH_INDIRECT_CALL	ACCESS:     173167  HIT:      95072  MISS:      78095
BTB BRANCH_RETURN	ACCESS:    1102880  HIT:     363487  MISS:     739393
BTB BRANCH_OTHER ACCESS:          0  HIT:          0  MISS:          0

L2C TOTAL     ACCESS:    5050189  HIT:    4219736  MISS:     830453  HIT %:     83.556  MISS %:     16.444   MPKI: 16.6091
L2C LOAD      ACCESS:    3432124  HIT:    2874374  MISS:     557750  HIT %:    83.7491  MISS %:    16.2509   MPKI: 11.155
L2C DATA LOAD MPKI: 2.41584
L2C INSTRUCTION LOAD MPKI: 8.73916
L2C RFO       ACCESS:     296576  HIT:     196146  MISS:     100430  HIT %:    66.1368  MISS %:    33.8632   MPKI: 2.0086
L2C PREFETCH  ACCESS:     790371  HIT:     626776  MISS:     163595  HIT %:    79.3015  MISS %:    20.6985   MPKI: 3.2719
L2C DATA PREFETCH MPKI: 3.2719
L2C INSTRUCTION PREFETCH MPKI: 0
L2C WRITEBACK ACCESS:     528731  HIT:     521693  MISS:       7038  HIT %:    98.6689  MISS %:    1.33111   MPKI: 0.14076
L2C LOAD TRANSLATION ACCESS:       2387  HIT:        747  MISS:       1640  HIT %:    31.2945  MISS %:    68.7055   MPKI: 0.0328
L2C PREFETCH  REQUESTED:     603789  ISSUED:     603789  USEFUL:      31509  USELESS:     132040
L2C USEFUL LOAD PREFETCHES:      31509 PREFETCH ISSUED TO LOWER LEVEL:     166068  ACCURACY: 18.9736
L2C TIMELY PREFETCHES:      31509 LATE PREFETCHES: 2473 DROPPED PREFETCHES: 0
L2C PREFETCHES SAME FILL-ORIGIN LEVEL: 98701 DIFFERENT FILL-ORIGIN LEVEL: 0
L2C AVERAGE MISS LATENCY: 35.1357 cycles
L2C RQ	ACCESS:    3731097	FORWARD:          0	MERGED:          0	TO_CACHE:    3731087
L2C WQ	ACCESS:     528731	FORWARD:         12	MERGED:          0	TO_CACHE:     528731
L2C PQ	ACCESS:     806461	FORWARD:          0	MERGED:       5808	TO_CACHE:     800651

L2C Instructions Evicting Data 187318
L2C Translations Evicting Data 1198
L2C Data Evicting Data 201185
L2C Instructions Evicting Instructions 249146
L2C Translations Evicting Instructions 403
L2C Data Evicting Instructions 182512
L2C Instructions Evicting Translations 493
L2C Translations Evicting Translations 39
L2C Data Evicting Translations 1105
L2C Dense regions hint from L2: 0
PSCL5 TOTAL     ACCESS:       2236  HIT:       2236  MISS:          0  HIT %:        100  MISS %:          0   MPKI: 0
PSCL5 LOAD TRANSLATION ACCESS:       2236  HIT:       2236  MISS:          0  HIT %:        100  MISS %:          0   MPKI: 0
PSCL5 PREFETCH  REQUESTED:          0  ISSUED:          0  USEFUL:          0  USELESS:          0
PSCL5 USEFUL LOAD PREFETCHES:          0 PREFETCH ISSUED TO LOWER LEVEL:          0  ACCURACY: -nan
PSCL5 TIMELY PREFETCHES:          0 LATE PREFETCHES: 0 DROPPED PREFETCHES: 0
PSCL5 PREFETCHES SAME FILL-ORIGIN LEVEL: 0 DIFFERENT FILL-ORIGIN LEVEL: 0

PSCL4 TOTAL     ACCESS:       2081  HIT:       2069  MISS:         12  HIT %:    99.4234  MISS %:   0.576646   MPKI: 0.00024
PSCL4 LOAD TRANSLATION ACCESS:       2081  HIT:       2069  MISS:         12  HIT %:    99.4234  MISS %:   0.576646   MPKI: 0.00024
PSCL4 PREFETCH  REQUESTED:          0  ISSUED:          0  USEFUL:          0  USELESS:          0
PSCL4 USEFUL LOAD PREFETCHES:          0 PREFETCH ISSUED TO LOWER LEVEL:          0  ACCURACY: -nan
PSCL4 TIMELY PREFETCHES:          0 LATE PREFETCHES: 0 DROPPED PREFETCHES: 0
PSCL4 PREFETCHES SAME FILL-ORIGIN LEVEL: 0 DIFFERENT FILL-ORIGIN LEVEL: 0

PSCL3 TOTAL     ACCESS:       2120  HIT:       2107  MISS:         13  HIT %:    99.3868  MISS %:   0.613208   MPKI: 0.00026
PSCL3 LOAD TRANSLATION ACCESS:       2120  HIT:       2107  MISS:         13  HIT %:    99.3868  MISS %:   0.613208   MPKI: 0.00026
PSCL3 PREFETCH  REQUESTED:          0  ISSUED:          0  USEFUL:          0  USELESS:          0
PSCL3 USEFUL LOAD PREFETCHES:          0 PREFETCH ISSUED TO LOWER LEVEL:          0  ACCURACY: -nan
PSCL3 TIMELY PREFETCHES:          0 LATE PREFETCHES: 0 DROPPED PREFETCHES: 0
PSCL3 PREFETCHES SAME FILL-ORIGIN LEVEL: 0 DIFFERENT FILL-ORIGIN LEVEL: 0

PSCL2 TOTAL     ACCESS:       2236  HIT:       2101  MISS:        135  HIT %:    93.9624  MISS %:    6.03757   MPKI: 0.0027
PSCL2 LOAD TRANSLATION ACCESS:       2236  HIT:       2101  MISS:        135  HIT %:    93.9624  MISS %:    6.03757   MPKI: 0.0027
PSCL2 PREFETCH  REQUESTED:          0  ISSUED:          0  USEFUL:          0  USELESS:          0
PSCL2 USEFUL LOAD PREFETCHES:          0 PREFETCH ISSUED TO LOWER LEVEL:          0  ACCURACY: -nan
PSCL2 TIMELY PREFETCHES:          0 LATE PREFETCHES: 0 DROPPED PREFETCHES: 0
PSCL2 PREFETCHES SAME FILL-ORIGIN LEVEL: 0 DIFFERENT FILL-ORIGIN LEVEL: 0

LLC TOTAL     ACCESS:     985366  HIT:     952128  MISS:      33238  HIT %:    96.6268  MISS %:    3.37316   MPKI: 0.66476
LLC LOAD      ACCESS:     555385  HIT:     550542  MISS:       4843  HIT %:     99.128  MISS %:   0.872008   MPKI: 0.09686
LLC RFO       ACCESS:     100317  HIT:      84858  MISS:      15459  HIT %:    84.5899  MISS %:    15.4101   MPKI: 0.30918
LLC PREFETCH  ACCESS:     166068  HIT:     154357  MISS:      11711  HIT %:    92.9481  MISS %:    7.05193   MPKI: 0.23422
LLC WRITEBACK ACCESS:     161956  HIT:     160895  MISS:       1061  HIT %:    99.3449  MISS %:   0.655116   MPKI: 0.02122
LLC LOAD TRANSLATION ACCESS:       1640  HIT:       1476  MISS:        164  HIT %:         90  MISS %:         10   MPKI: 0.00328
LLC PREFETCH  REQUESTED:          0  ISSUED:          0  USEFUL:        958  USELESS:       5770
LLC USEFUL LOAD PREFETCHES:        958 PREFETCH ISSUED TO LOWER LEVEL:      11711  ACCURACY: 8.18034
LLC TIMELY PREFETCHES:        958 LATE PREFETCHES: 0 DROPPED PREFETCHES: 0
LLC PREFETCHES SAME FILL-ORIGIN LEVEL: 0 DIFFERENT FILL-ORIGIN LEVEL: 0
LLC AVERAGE MISS LATENCY: 134.013 cycles
LLC RQ	ACCESS:     657347	FORWARD:          0	MERGED:          0	TO_CACHE:     657342
LLC WQ	ACCESS:     161956	FORWARD:          5	MERGED:          0	TO_CACHE:     161956
LLC PQ	ACCESS:     166068	FORWARD:          0	MERGED:          0	TO_CACHE:     166068

LLC Dense regions hint to LLC: 0

RAW hits: 514368
Loads Generated: 12617505
Loads sent to L1D: 12103135
Stores Generated: 6899109
Stores sent to L1D: 6899106
Major fault: 0 Minor fault: 2264
Allocated PAGES: 2264

stream: 
stream:times selected: 1050548
stream:pref_filled: 140064
stream:pref_useful: 23970
stream:pref_late: 37236
stream:misses: 6651
stream:misses_by_poll: 0

CS: 
CS:times selected: 142967
CS:pref_filled: 66508
CS:pref_useful: 41079
CS:pref_late: 8129
CS:misses: 17103
CS:misses_by_poll: 14

CPLX: 
CPLX:times selected: 905811
CPLX:pref_filled: 24935
CPLX:pref_useful: 4646
CPLX:pref_late: 1962
CPLX:misses: 91297
CPLX:misses_by_poll: 2

NL_L1: 
NL:times selected: 6002
NL:pref_filled: 525
NL:pref_useful: 74
NL:pref_late: 22
NL:misses: 319
NL:misses_by_poll: 0

total selections: 2105328
total_filled: 202215
total_useful: 58001
total_late: 47486
total_polluted: 16
total_misses_after_warmup: 781874
conflicts: 3242162
Degree Incremented Times: 0
Degree Decremented Times: 129797

L1 IP Table Write Accesses: 5305151
L1 IP Table Read Accesses: 2062989
L1 RST Write Accesses: 887491
L1 RST Read Accesses: 1774982
L1 CSPT Write Accesses: 887491
L1 CSPT Read Accesses: 1651121
L1 RR Filter Tag Write Accesses: 562313
L1 RR Filter Tag Read Accesses: 40586992
L1 IP Table Tag Write Accesses: 8841474
L1 IP Table Tag Read Accesses: 8841474
L1 RST Tag Write Accesses: 0
L1 RST Tag Read Accesses: 7607697
L1 RR Filter Write Accesses: 0
L1 RR Filter Read Accesses: 1485347
test: 146266
L2 IP Table Read Accesses: 1178284
L2 IP Table Write Accesses: 1615606
L2 IP Table Tag Read Accesses: 894720
L2 IP Table Tag Write Accesses: 894720

DRAM Statistics
 CHANNEL 0
 RQ ROW_BUFFER_HIT:      15874  ROW_BUFFER_MISS:      16301
 DBUS_CONGESTED:         23
 WQ ROW_BUFFER_HIT:       1378  ROW_BUFFER_MISS:       7760  FULL:          0

 AVG_CONGESTED_CYCLE: 7
 All warmup complete: 2
Channel 0 Bank busy for read cycles: 0
Channel 0 Bank busy for write cycles: 0
Channel 0
Rank 0
0banks busy for read cycles: 123511575
0banks busy for write cycles: 2744
1banks busy for read cycles: 704007
1banks busy for write cycles: 320090
2banks busy for read cycles: 407687
2banks busy for write cycles: 95113
3banks busy for read cycles: 92742
3banks busy for write cycles: 34590
4banks busy for read cycles: 77297
4banks busy for write cycles: 23802
5banks busy for read cycles: 44610
5banks busy for write cycles: 17573
6banks busy for read cycles: 35109
6banks busy for write cycles: 13870
7banks busy for read cycles: 31439
7banks busy for write cycles: 17302
8banks busy for read cycles: 61253
8banks busy for write cycles: 52774

CPU 0 Branch Prediction Accuracy: 91.6417% MPKI: 15.2922 Average ROB Occupancy at Mispredict: 17.2726
Branch types
NOT_BRANCH: 40851762 81.7035%
BRANCH_DIRECT_JUMP: 522633 1.04527%
BRANCH_INDIRECT: 204723 0.409446%
BRANCH_CONDITIONAL: 6214815 12.4296%
BRANCH_DIRECT_CALL: 929734 1.85947%
BRANCH_INDIRECT_CALL: 173167 0.346334%
BRANCH_RETURN: 1102880 2.20576%
BRANCH_OTHER: 0 0%

@sumon_overall_L1D     58001     51755     51755    144198    202215   1124386   1124386
@Sumon_Early_by_class_L1D     18913     34853      3071         4
@Sumon_Late_by_class_L1D     36277      7853      1546         4

@Sumon_Early_by_cycle_L1D     39896      3662      2013      3829       245      1246       892      1497      1164      2510       732       315
@Sumon_Late_by_cycle_L1D     15013     16625     11245      1688      1203        24
@Sumon_Early_stream_L1D      6504      1995      1232      3273       180       902       562       974       808      1657       583       243
@Sumon_Early_CS_L1D     32410      1353       612        46         8        31         9       267         6        33        10        68
@Sumon_Early_CPLX_L1D       739       214       142       482        43       308       213       241       216       334       135         4
@Sumon_Late_stream_L1D     11205     14640     10186        69       177         0
@Sumon_Late_CS_L1D      3205      1087       906      1612      1019        24
@Sumon_Late_CPLX_L1D       518       872       149         4         3         0
@sumon_overall_L2C     31509      2473         0    132040    163595    603789    603789
@Sumon_Early_by_class_L2C      2106       214       376         0
@Sumon_Late_by_class_L2C         0         0         0         0

@Sumon_Early_by_cycle_L2C      5474      2728      2470      2057       875      3896      2829      1870      1061      1636      1108      5505
@Sumon_Late_by_cycle_L2C       849       929       301        71       323         0
@Sumon_Early_stream_L2C         0         0         0         0         0         0         0         0         0        11       404      1691
@Sumon_Early_CS_L2C         0         0         0         0         0         0         0         0         0         0         1       213
@Sumon_Early_CPLX_L2C         0         0         0         0         0         0         0         0         0         1        27       348
@Sumon_Late_stream_L2C         0         0         0         0         0         0
@Sumon_Late_CS_L2C         0         0         0         0         0         0
@Sumon_Late_CPLX_L2C         0         0         0         0         0         0
DRAM PAGES: 1048576
Allocated PAGES: 2264
