
*** ChampSim Multicore Out-of-Order Simulator ***

Warmup Instructions: 10000000
Simulation Instructions: 50000000
Number of CPUs: 1
LLC sets: 2048
LLC ways: 16
Off-chip DRAM Size: 4096 MB Channels: 1 Width: 64-bit Data Rate: 6400 MT/s
CPU 0 runs dpc3_traces/603.bwaves_s-3699B.champsimtrace.xz
.xz
CPU 0 Bimodal branch predictor
BTB has LRU replacement policy
ITLB has LRU replacement policy
DTLB has LRU replacement policy
STLB has LRU replacement policy
L1I has LRU replacement policy
IP Table Entries: 256
L1D has LRU replacement policy
IP_Table L2 entries: 256
L2C has LRU replacement policy
LLC has LRU replacement policy
Heartbeat CPU 0 instructions: 10000001 cycles: 2959207 heartbeat IPC: 3.37928 cumulative IPC: 3.37928 (Simulation time: 0 hr 4 min 8 sec) 

Warmup complete CPU 0 instructions: 10000001 cycles: 2959207 (Simulation time: 0 hr 4 min 8 sec) 

Heartbeat CPU 0 instructions: 20000003 cycles: 17617636 heartbeat IPC: 0.682202 cumulative IPC: 0.682202 (Simulation time: 0 hr 8 min 3 sec) 
Heartbeat CPU 0 instructions: 30000000 cycles: 32095977 heartbeat IPC: 0.690687 cumulative IPC: 0.686418 (Simulation time: 0 hr 11 min 53 sec) 
Heartbeat CPU 0 instructions: 40000003 cycles: 48002583 heartbeat IPC: 0.62867 cumulative IPC: 0.666025 (Simulation time: 0 hr 16 min 1 sec) 
Heartbeat CPU 0 instructions: 50000000 cycles: 63923780 heartbeat IPC: 0.628093 cumulative IPC: 0.656119 (Simulation time: 0 hr 20 min 21 sec) 
Heartbeat CPU 0 instructions: 60000002 cycles: 79841258 heartbeat IPC: 0.62824 cumulative IPC: 0.650347 (Simulation time: 0 hr 23 min 54 sec) 
Finished CPU 0 instructions: 50000001 cycles: 76882051 cumulative IPC: 0.650347 (Simulation time: 0 hr 23 min 54 sec) 

ChampSim completed all CPUs

Region of Interest Statistics

CPU 0 cumulative IPC: 0.650347 instructions: 50000001 cycles: 76882051
ITLB TOTAL     ACCESS:    9404917  HIT:    9404917  MISS:          0  HIT %:        100  MISS %:          0   MPKI: 0
ITLB LOAD TRANSLATION ACCESS:    9404917  HIT:    9404917  MISS:          0  HIT %:        100  MISS %:          0   MPKI: 0
ITLB PREFETCH  REQUESTED:          0  ISSUED:          0  USEFUL:          0  USELESS:          0
ITLB USEFUL LOAD PREFETCHES:          0 PREFETCH ISSUED TO LOWER LEVEL:          0  ACCURACY: -nan
ITLB TIMELY PREFETCHES:          0 LATE PREFETCHES: 0 DROPPED PREFETCHES: 0
ITLB PREFETCHES SAME FILL-ORIGIN LEVEL: 0 DIFFERENT FILL-ORIGIN LEVEL: 0
ITLB AVERAGE MISS LATENCY: -nan cycles
ITLB RQ	ACCESS:   10602345	FORWARD:          0	MERGED:    1197429	TO_CACHE:    9404916

DTLB TOTAL     ACCESS:    7882682  HIT:    7881824  MISS:        858  HIT %:    99.9891  MISS %:  0.0108846   MPKI: 0.01716
DTLB LOAD TRANSLATION ACCESS:    7882682  HIT:    7881824  MISS:        858  HIT %:    99.9891  MISS %:  0.0108846   MPKI: 0.01716
DTLB PREFETCH  REQUESTED:          0  ISSUED:          0  USEFUL:          0  USELESS:          0
DTLB USEFUL LOAD PREFETCHES:          0 PREFETCH ISSUED TO LOWER LEVEL:          0  ACCURACY: -nan
DTLB TIMELY PREFETCHES:          0 LATE PREFETCHES: 0 DROPPED PREFETCHES: 0
DTLB PREFETCHES SAME FILL-ORIGIN LEVEL: 0 DIFFERENT FILL-ORIGIN LEVEL: 0
DTLB AVERAGE MISS LATENCY: 145.585 cycles
DTLB RQ	ACCESS:   10532504	FORWARD:          0	MERGED:    2648231	TO_CACHE:    7884273

STLB TOTAL     ACCESS:     143902  HIT:     143052  MISS:        850  HIT %:    99.4093  MISS %:    0.59068   MPKI: 0.017
STLB LOAD TRANSLATION ACCESS:        858  HIT:          8  MISS:        850  HIT %:   0.932401  MISS %:    99.0676   MPKI: 0.017
STLB TRANSLATION FROM L1D PREFETCHER ACCESS:     143044  HIT:     143044  MISS:          0  HIT %:        100  MISS %:          0   MPKI: 0
STLB PREFETCH  REQUESTED:          0  ISSUED:          0  USEFUL:          0  USELESS:          0
STLB USEFUL LOAD PREFETCHES:          0 PREFETCH ISSUED TO LOWER LEVEL:          0  ACCURACY: -nan
STLB TIMELY PREFETCHES:          0 LATE PREFETCHES: 0 DROPPED PREFETCHES: 0
STLB PREFETCHES SAME FILL-ORIGIN LEVEL: 0 DIFFERENT FILL-ORIGIN LEVEL: 0
STLB AVERAGE MISS LATENCY: 137.868 cycles
STLB RQ	ACCESS:     335040	FORWARD:          0	MERGED:     191138	TO_CACHE:     143902

STLB Hit, L1D data hit: 0
STLB Hit, L2C data hit: 0
STLB Hit, LLC data hit: 0
STLB Hit, LLC data miss: 0
STLB STLB hints to L2: 0
L1D TOTAL     ACCESS:   10719155  HIT:   10663538  MISS:      55617  HIT %:    99.4811  MISS %:   0.518856   MPKI: 1.11234
L1D LOAD      ACCESS:    8235956  HIT:    8235166  MISS:        790  HIT %:    99.9904  MISS %: 0.00959209   MPKI: 0.0158
L1D RFO       ACCESS:    2149756  HIT:    2124740  MISS:      25016  HIT %:    98.8363  MISS %:    1.16367   MPKI: 0.50032
L1D PREFETCH  ACCESS:     333443  HIT:     303632  MISS:      29811  HIT %:    91.0596  MISS %:    8.94036   MPKI: 0.59622
L1D PREFETCH  REQUESTED:     669104  ISSUED:     669071  USEFUL:      15644  USELESS:      14101
L1D USEFUL LOAD PREFETCHES:      15644 PREFETCH ISSUED TO LOWER LEVEL:      30190  ACCURACY: 51.8185
L1D TIMELY PREFETCHES:      15644 LATE PREFETCHES: 5 DROPPED PREFETCHES: 0
L1D PREFETCHES SAME FILL-ORIGIN LEVEL: 30190 DIFFERENT FILL-ORIGIN LEVEL: 0
L1D AVERAGE MISS LATENCY: 128862 cycles
L1D RQ	ACCESS:   12156158	FORWARD:          0	MERGED:    3914272	TO_CACHE:    8236272
L1D WQ	ACCESS:    2347019	FORWARD:       6321	MERGED:      50787	TO_CACHE:    2296232
L1D PQ	ACCESS:     334889	FORWARD:          0	MERGED:          0	TO_CACHE:     334182

L1D UNIQUE REGIONS ACCESSED: 0
L1D REGIONS CONFLICTS: 0
L1D Cross Page Prefetch Requests: 0
L1D Same Page Prefetch Requests: 402429
L1D ROI Sum of L1D PQ occupancy: 4489707
L1D PREFETCHES PUSHED FROM L2C: 0
L1I TOTAL     ACCESS:   10602340  HIT:   10602323  MISS:         17  HIT %:    99.9998  MISS %: 0.000160342   MPKI: 0.00034
L1I LOAD      ACCESS:   10602340  HIT:   10602323  MISS:         17  HIT %:    99.9998  MISS %: 0.000160342   MPKI: 0.00034
L1I PREFETCH  REQUESTED:          0  ISSUED:          0  USEFUL:          0  USELESS:          0
L1I USEFUL LOAD PREFETCHES:          0 PREFETCH ISSUED TO LOWER LEVEL:          0  ACCURACY: -nan
L1I TIMELY PREFETCHES:          0 LATE PREFETCHES: 0 DROPPED PREFETCHES: 0
L1I PREFETCHES SAME FILL-ORIGIN LEVEL: 0 DIFFERENT FILL-ORIGIN LEVEL: 0
L1I AVERAGE MISS LATENCY: 204.824 cycles
L1I RQ	ACCESS:   17591422	FORWARD:          0	MERGED:    6989077	TO_CACHE:   10602345

BTB TOTAL     ACCESS:    6473647  HIT:    6433792  MISS:      39855  HIT %:    99.3844  MISS %:    0.61565   MPKI: 0.7971
BTB BRANCH_DIRECT_JUMP	ACCESS:     502580  HIT:     502534  MISS:         46
BTB BRANCH_INDIRECT	ACCESS:      37925  HIT:      37803  MISS:        122
BTB BRANCH_CONDITIONAL	ACCESS:    5752790  HIT:    5752638  MISS:        152
BTB BRANCH_DIRECT_CALL	ACCESS:      90176  HIT:      90117  MISS:         59
BTB BRANCH_INDIRECT_CALL	ACCESS:          0  HIT:          0  MISS:          0
BTB BRANCH_RETURN	ACCESS:      90176  HIT:      50700  MISS:      39476
BTB BRANCH_OTHER ACCESS:          0  HIT:          0  MISS:          0

L2C TOTAL     ACCESS:     101921  HIT:      47176  MISS:      54745  HIT %:    46.2868  MISS %:    53.7132   MPKI: 1.0949
L2C LOAD      ACCESS:        802  HIT:        580  MISS:        222  HIT %:    72.3192  MISS %:    27.6808   MPKI: 0.00444
L2C DATA LOAD MPKI: 0.0041
L2C INSTRUCTION LOAD MPKI: 0.00034
L2C RFO       ACCESS:      24642  HIT:         57  MISS:      24585  HIT %:   0.231312  MISS %:    99.7687   MPKI: 0.4917
L2C PREFETCH  ACCESS:      30347  HIT:        517  MISS:      29830  HIT %:    1.70363  MISS %:    98.2964   MPKI: 0.5966
L2C DATA PREFETCH MPKI: 0.5966
L2C INSTRUCTION PREFETCH MPKI: 0
L2C WRITEBACK ACCESS:      45280  HIT:      45280  MISS:          0  HIT %:        100  MISS %:          0   MPKI: 0
L2C LOAD TRANSLATION ACCESS:        850  HIT:        742  MISS:        108  HIT %:    87.2941  MISS %:    12.7059   MPKI: 0.00216
L2C PREFETCH  REQUESTED:        179  ISSUED:        179  USEFUL:         39  USELESS:      25786
L2C USEFUL LOAD PREFETCHES:         39 PREFETCH ISSUED TO LOWER LEVEL:      29831  ACCURACY: 0.130736
L2C TIMELY PREFETCHES:         39 LATE PREFETCHES: 1 DROPPED PREFETCHES: 0
L2C PREFETCHES SAME FILL-ORIGIN LEVEL: 83 DIFFERENT FILL-ORIGIN LEVEL: 0
L2C AVERAGE MISS LATENCY: 143.989 cycles
L2C RQ	ACCESS:      26294	FORWARD:          0	MERGED:          0	TO_CACHE:      26294
L2C WQ	ACCESS:      45280	FORWARD:          0	MERGED:          0	TO_CACHE:      45280
L2C PQ	ACCESS:      30369	FORWARD:          0	MERGED:         16	TO_CACHE:      30353

L2C Instructions Evicting Data 2
L2C Translations Evicting Data 93
L2C Data Evicting Data 46745
L2C Instructions Evicting Instructions 0
L2C Translations Evicting Instructions 0
L2C Data Evicting Instructions 252
L2C Instructions Evicting Translations 0
L2C Translations Evicting Translations 0
L2C Data Evicting Translations 111
L2C Dense regions hint from L2: 0
PSCL5 TOTAL     ACCESS:        850  HIT:        850  MISS:          0  HIT %:        100  MISS %:          0   MPKI: 0
PSCL5 LOAD TRANSLATION ACCESS:        850  HIT:        850  MISS:          0  HIT %:        100  MISS %:          0   MPKI: 0
PSCL5 PREFETCH  REQUESTED:          0  ISSUED:          0  USEFUL:          0  USELESS:          0
PSCL5 USEFUL LOAD PREFETCHES:          0 PREFETCH ISSUED TO LOWER LEVEL:          0  ACCURACY: -nan
PSCL5 TIMELY PREFETCHES:          0 LATE PREFETCHES: 0 DROPPED PREFETCHES: 0
PSCL5 PREFETCHES SAME FILL-ORIGIN LEVEL: 0 DIFFERENT FILL-ORIGIN LEVEL: 0

PSCL4 TOTAL     ACCESS:        850  HIT:        850  MISS:          0  HIT %:        100  MISS %:          0   MPKI: 0
PSCL4 LOAD TRANSLATION ACCESS:        850  HIT:        850  MISS:          0  HIT %:        100  MISS %:          0   MPKI: 0
PSCL4 PREFETCH  REQUESTED:          0  ISSUED:          0  USEFUL:          0  USELESS:          0
PSCL4 USEFUL LOAD PREFETCHES:          0 PREFETCH ISSUED TO LOWER LEVEL:          0  ACCURACY: -nan
PSCL4 TIMELY PREFETCHES:          0 LATE PREFETCHES: 0 DROPPED PREFETCHES: 0
PSCL4 PREFETCHES SAME FILL-ORIGIN LEVEL: 0 DIFFERENT FILL-ORIGIN LEVEL: 0

PSCL3 TOTAL     ACCESS:        850  HIT:        850  MISS:          0  HIT %:        100  MISS %:          0   MPKI: 0
PSCL3 LOAD TRANSLATION ACCESS:        850  HIT:        850  MISS:          0  HIT %:        100  MISS %:          0   MPKI: 0
PSCL3 PREFETCH  REQUESTED:          0  ISSUED:          0  USEFUL:          0  USELESS:          0
PSCL3 USEFUL LOAD PREFETCHES:          0 PREFETCH ISSUED TO LOWER LEVEL:          0  ACCURACY: -nan
PSCL3 TIMELY PREFETCHES:          0 LATE PREFETCHES: 0 DROPPED PREFETCHES: 0
PSCL3 PREFETCHES SAME FILL-ORIGIN LEVEL: 0 DIFFERENT FILL-ORIGIN LEVEL: 0

PSCL2 TOTAL     ACCESS:        850  HIT:        849  MISS:          1  HIT %:    99.8824  MISS %:   0.117647   MPKI: 2e-05
PSCL2 LOAD TRANSLATION ACCESS:        850  HIT:        849  MISS:          1  HIT %:    99.8824  MISS %:   0.117647   MPKI: 2e-05
PSCL2 PREFETCH  REQUESTED:          0  ISSUED:          0  USEFUL:          0  USELESS:          0
PSCL2 USEFUL LOAD PREFETCHES:          0 PREFETCH ISSUED TO LOWER LEVEL:          0  ACCURACY: -nan
PSCL2 TIMELY PREFETCHES:          0 LATE PREFETCHES: 0 DROPPED PREFETCHES: 0
PSCL2 PREFETCHES SAME FILL-ORIGIN LEVEL: 0 DIFFERENT FILL-ORIGIN LEVEL: 0

LLC TOTAL     ACCESS:      93620  HIT:      38879  MISS:      54741  HIT %:    41.5285  MISS %:    58.4715   MPKI: 1.09482
LLC LOAD      ACCESS:        221  HIT:          1  MISS:        220  HIT %:   0.452489  MISS %:    99.5475   MPKI: 0.0044
LLC RFO       ACCESS:      24585  HIT:          0  MISS:      24585  HIT %:          0  MISS %:        100   MPKI: 0.4917
LLC PREFETCH  ACCESS:      29831  HIT:          3  MISS:      29828  HIT %:  0.0100567  MISS %:    99.9899   MPKI: 0.59656
LLC WRITEBACK ACCESS:      38875  HIT:      38875  MISS:          0  HIT %:        100  MISS %:          0   MPKI: 0
LLC LOAD TRANSLATION ACCESS:        108  HIT:          0  MISS:        108  HIT %:          0  MISS %:        100   MPKI: 0.00216
LLC PREFETCH  REQUESTED:          0  ISSUED:          0  USEFUL:          1  USELESS:      12173
LLC USEFUL LOAD PREFETCHES:          1 PREFETCH ISSUED TO LOWER LEVEL:      29828  ACCURACY: 0.00335255
LLC TIMELY PREFETCHES:          1 LATE PREFETCHES: 0 DROPPED PREFETCHES: 0
LLC PREFETCHES SAME FILL-ORIGIN LEVEL: 0 DIFFERENT FILL-ORIGIN LEVEL: 0
LLC AVERAGE MISS LATENCY: 113.662 cycles
LLC RQ	ACCESS:      24914	FORWARD:          0	MERGED:          0	TO_CACHE:      24914
LLC WQ	ACCESS:      38875	FORWARD:          0	MERGED:          0	TO_CACHE:      38875
LLC PQ	ACCESS:      29831	FORWARD:          0	MERGED:          0	TO_CACHE:      29831

LLC Dense regions hint to LLC: 0

RAW hits: 238953
Loads Generated: 12395111
Loads sent to L1D: 12156158
Stores Generated: 2347019
Stores sent to L1D: 2347019
Major fault: 0 Minor fault: 897
Allocated PAGES: 897

stream: 
stream:times selected: 2463485
stream:pref_filled: 20093
stream:pref_useful: 8460
stream:pref_late: 4
stream:misses: 161
stream:misses_by_poll: 0

CS: 
CS:times selected: 855010
CS:pref_filled: 8779
CS:pref_useful: 6471
CS:pref_late: 1
CS:misses: 136
CS:misses_by_poll: 35

CPLX: 
CPLX:times selected: 1608185
CPLX:pref_filled: 1142
CPLX:pref_useful: 782
CPLX:pref_late: 0
CPLX:misses: 31
CPLX:misses_by_poll: 6

NL_L1: 
NL:times selected: 11562
NL:pref_filled: 0
NL:pref_useful: 0
NL:pref_late: 0
NL:misses: 1
NL:misses_by_poll: 0

total selections: 4938242
total_filled: 29811
total_useful: 15644
total_late: 5
total_polluted: 41
total_misses_after_warmup: 1104
conflicts: 37721
Degree Incremented Times: 0
Degree Decremented Times: 0

L1 IP Table Write Accesses: 8081076
L1 IP Table Read Accesses: 8043355
L1 RST Write Accesses: 1996749
L1 RST Read Accesses: 3993497
L1 CSPT Write Accesses: 1996749
L1 CSPT Read Accesses: 5668886
L1 RR Filter Tag Write Accesses: 334922
L1 RR Filter Tag Read Accesses: 276090838
L1 IP Table Tag Write Accesses: 8236270
L1 IP Table Tag Read Accesses: 8236270
L1 RST Tag Write Accesses: 8
L1 RST Tag Read Accesses: 28967859
L1 RR Filter Write Accesses: 0
L1 RR Filter Read Accesses: 16464278
test: 87987
L2 IP Table Read Accesses: 61751
L2 IP Table Write Accesses: 61124
L2 IP Table Tag Read Accesses: 30966
L2 IP Table Tag Write Accesses: 30966

DRAM Statistics
 CHANNEL 0
 RQ ROW_BUFFER_HIT:      32950  ROW_BUFFER_MISS:      21791
 DBUS_CONGESTED:         13
 WQ ROW_BUFFER_HIT:        810  ROW_BUFFER_MISS:      17475  FULL:          0

 AVG_CONGESTED_CYCLE: 4
 All warmup complete: 2
Channel 0 Bank busy for read cycles: 0
Channel 0 Bank busy for write cycles: 0
Channel 0
Rank 0
0banks busy for read cycles: 73409325
0banks busy for write cycles: 4845
1banks busy for read cycles: 1175425
1banks busy for write cycles: 171289
2banks busy for read cycles: 556035
2banks busy for write cycles: 129469
3banks busy for read cycles: 558316
3banks busy for write cycles: 416159
4banks busy for read cycles: 164462
4banks busy for write cycles: 179499
5banks busy for read cycles: 18994
5banks busy for write cycles: 38203
6banks busy for read cycles: 22060
6banks busy for write cycles: 12583
7banks busy for read cycles: 6960
7banks busy for write cycles: 11483
8banks busy for read cycles: 2485
8banks busy for write cycles: 4460

CPU 0 Branch Prediction Accuracy: 88.3397% MPKI: 16.0103 Average ROB Occupancy at Mispredict: 23.3623
Branch types
NOT_BRANCH: 43134688 86.2694%
BRANCH_DIRECT_JUMP: 502580 1.00516%
BRANCH_INDIRECT: 37925 0.07585%
BRANCH_CONDITIONAL: 6144459 12.2889%
BRANCH_DIRECT_CALL: 90176 0.180352%
BRANCH_INDIRECT_CALL: 0 0%
BRANCH_RETURN: 90176 0.180352%
BRANCH_OTHER: 0 0%

@Sumon_Early_L1D        22        10        15       193      1450      1344      4015      2708      3336      2375        47       203     15718
@Sumon_Late_L1D         0         5         0         0         0         0         0         0         0         0         0         0         5
@Sumon_Early_stream_L1D        19        10        15       191      1420      1301       215      2691      2427        22        35       114      8460
@Sumon_Early_CS_L1D         0         0         0         1        25        39      3736        11       481      2118         3        57      6471
@Sumon_Early_CPLX_L1D         2         0         0         1         4         2        64         6       428       235         9        31       782
@Sumon_Late_stream_L1D         0         4         0         0         0         0         0         0         0         0         0         0         4
@Sumon_Late_CS_L1D         0         1         0         0         0         0         0         0         0         0         0         0         1
@Sumon_Late_CPLX_L1D         0         0         0         0         0         0         0         0         0         0         0         0         0
@Sumon_early_total_L1D      8460      6471       782     15718
@Sumon_late_total_L1D         4         1         0     5
@Sumon_Early_L2C         6         3         0         0         0         1         0         2         0         0         2        43        57
@Sumon_Late_L2C         1         1         0         0         0         0         0         0         0         0         0         0         2
@Sumon_Early_stream_L2C         0         0         0         0         0         0         0         0         0         0         0        17        17
@Sumon_Early_CS_L2C         0         0         0         0         0         0         0         0         0         0         0         0         0
@Sumon_Early_CPLX_L2C         0         0         0         0         0         0         0         0         0         0         0         8         8
@Sumon_Late_stream_L2C         0         0         0         0         0         0         0         0         0         0         0         0         0
@Sumon_Late_CS_L2C         0         0         0         0         0         0         0         0         0         0         0         0         0
@Sumon_Late_CPLX_L2C         0         0         0         0         0         0         0         0         0         0         0         0         0
@Sumon_early_total_L2C        17         0         8        57
@Sumon_late_total_L2C         0         0         0     2
DRAM PAGES: 1048576
Allocated PAGES: 897
