Initialize SIGNATURE TABLE
ST_SET: 1
ST_WAY: 256
ST_TAG_BIT: 16
ST_TAG_MASK: ffff

Initialize PATTERN TABLE
PT_SET: 512
PT_WAY: 4
SIG_DELTA_BIT: 7
C_SIG_BIT: 4
C_DELTA_BIT: 4

Initialize PREFETCH FILTER
FILTER_SET: 1024

*** ChampSim Multicore Out-of-Order Simulator ***

Warmup Instructions: 50000000
Simulation Instructions: 50000000
Number of CPUs: 1
LLC sets: 2048
LLC ways: 16
Off-chip DRAM Size: 4096 MB Channels: 1 Width: 64-bit Data Rate: 6400 MT/s
CPU 0 runs ../../biswa/SPEC2017Traces/600.perlbench_s-570B.champsimtrace.xz
.xz
CPU 0 Bimodal branch predictor
BTB has LRU replacement policy
ITLB has LRU replacement policy
DTLB has LRU replacement policy
STLB has LRU replacement policy
L1I has LRU replacement policy
L1D has LRU replacement policy
ST_WAYS: 256
PT_SETS: 512
Initialize DRRIP state for L2C
Initialize DRRIP state for LLC
Heartbeat CPU 0 instructions: 10000003 cycles: 2893952 heartbeat IPC: 3.45548 cumulative IPC: 3.45548 (Simulation time: 0 hr 2 min 25 sec) 
Heartbeat CPU 0 instructions: 20000003 cycles: 5752666 heartbeat IPC: 3.49808 cumulative IPC: 3.47665 (Simulation time: 0 hr 4 min 48 sec) 
Heartbeat CPU 0 instructions: 30000003 cycles: 8648050 heartbeat IPC: 3.45377 cumulative IPC: 3.46899 (Simulation time: 0 hr 7 min 16 sec) 
Heartbeat CPU 0 instructions: 40000002 cycles: 11519273 heartbeat IPC: 3.48284 cumulative IPC: 3.47244 (Simulation time: 0 hr 9 min 38 sec) 
Heartbeat CPU 0 instructions: 50000002 cycles: 14388804 heartbeat IPC: 3.48489 cumulative IPC: 3.47492 (Simulation time: 0 hr 12 min 5 sec) 

Warmup complete CPU 0 instructions: 50000002 cycles: 14388804 (Simulation time: 0 hr 12 min 5 sec) 

Heartbeat CPU 0 instructions: 60000000 cycles: 29595088 heartbeat IPC: 0.657623 cumulative IPC: 0.657623 (Simulation time: 0 hr 14 min 42 sec) 
epoch: 1000
next table: 3494
cur table: 4399
epoch: 1000
next table: 5065
cur table: 3494
epoch: 1000
next table: 8211
cur table: 5065
epoch: 1000
next table: 8575
cur table: 8211
epoch: 1000
next table: 7753
cur table: 8575
epoch: 1000
next table: 4426
cur table: 7753
epoch: 1000
next table: 5746
cur table: 4426
epoch: 1000
next table: 3341
cur table: 5746
epoch: 1000
next table: 3103
cur table: 3341
epoch: 1000
next table: 4438
cur table: 3103
epoch: 1000
next table: 3393
cur table: 4438
epoch: 1000
next table: 3638
cur table: 3393
epoch: 1000
next table: 7042
cur table: 3638
epoch: 1000
next table: 6675
cur table: 7042
epoch: 1000
next table: 8978
cur table: 6675
epoch: 1000
next table: 4816
cur table: 8978
Heartbeat CPU 0 instructions: 70000000 cycles: 53543735 heartbeat IPC: 0.41756 cumulative IPC: 0.510791 (Simulation time: 0 hr 17 min 15 sec) 
epoch: 1000
next table: 7739
cur table: 4816
epoch: 1000
next table: 5248
cur table: 7739
epoch: 1000
next table: 9343
cur table: 5248
epoch: 1000
next table: 12348
cur table: 9343
epoch: 1000
next table: 4607
cur table: 21717
epoch: 1000
next table: 3937
cur table: 12348
epoch: 1000
next table: 6146
cur table: 3937
epoch: 1000
next table: 9550
cur table: 6146
epoch: 1000
next table: 3573
cur table: 4607
epoch: 1000
next table: 2412
cur table: 9550
epoch: 1000
next table: 2186
cur table: 2412
epoch: 1000
next table: 2481
cur table: 3573
epoch: 1000
next table: 2317
cur table: 2186
epoch: 1000
next table: 2211
cur table: 2481
epoch: 1000
next table: 2417
cur table: 2317
epoch: 1000
next table: 2105
cur table: 2211
epoch: 1000
next table: 2534
cur table: 2417
epoch: 1000
next table: 2789
cur table: 2534
epoch: 1000
next table: 2482
cur table: 2105
epoch: 1000
next table: 3014
cur table: 2789
epoch: 1000
next table: 2867
cur table: 3014
epoch: 1000
next table: 2737
cur table: 2482
epoch: 1000
next table: 3377
cur table: 2867
epoch: 1000
next table: 2389
cur table: 2737
epoch: 1000
next table: 3367
cur table: 3377
epoch: 1000
next table: 3558
cur table: 3367
epoch: 1000
next table: 2713
cur table: 2389
epoch: 1000
next table: 1805
cur table: 2713
epoch: 1000
next table: 69139
cur table: 3558
epoch: 1000
next table: 6030
cur table: 69139
epoch: 1000
next table: 2574
cur table: 1805
Heartbeat CPU 0 instructions: 80000002 cycles: 79041189 heartbeat IPC: 0.392196 cumulative IPC: 0.46402 (Simulation time: 0 hr 19 min 55 sec) 
epoch: 1000
next table: 8553
cur table: 6030
epoch: 1000
next table: 11307
cur table: 8553
epoch: 1000
next table: 2631
cur table: 2574
epoch: 1000
next table: 21214
cur table: 11307
epoch: 1000
next table: 2638
cur table: 2631
epoch: 1000
next table: 15355
cur table: 21214
epoch: 1000
next table: 2795
cur table: 15355
epoch: 1000
next table: 2981
cur table: 2638
epoch: 1000
next table: 2646
cur table: 2795
epoch: 1000
next table: 9542
cur table: 2646
epoch: 1000
next table: 2472
cur table: 2981
epoch: 1000
next table: 15384
cur table: 9542
epoch: 1000
next table: 2275
cur table: 2472
epoch: 1000
next table: 7657
cur table: 15384
epoch: 1000
next table: 2390
cur table: 2275
epoch: 1000
next table: 4568
cur table: 7657
epoch: 1000
next table: 2017
cur table: 2390
epoch: 1000
next table: 2620
cur table: 4568
epoch: 1000
next table: 2011
cur table: 2017
epoch: 1000
next table: 2510
cur table: 2620
epoch: 1000
next table: 2030
cur table: 2011
epoch: 1000
next table: 4128
cur table: 2510
epoch: 1000
next table: 17399
cur table: 4128
epoch: 1000
next table: 2516
cur table: 2030
epoch: 1000
next table: 5389
cur table: 17399
epoch: 1000
next table: 5119
cur table: 5389
epoch: 1000
next table: 3014
cur table: 2516
epoch: 1000
next table: 6124
cur table: 5119
epoch: 1000
next table: 2136
cur table: 3014
epoch: 1000
next table: 9851
cur table: 6124
epoch: 1000
next table: 6853
cur table: 9851
epoch: 1000
next table: 2464
cur table: 2136
epoch: 1000
next table: 7458
cur table: 6853
epoch: 1000
next table: 1999
cur table: 2464
epoch: 1000
next table: 6548
cur table: 7458
epoch: 1000
next table: 2080
cur table: 1999
epoch: 1000
next table: 4855
cur table: 6548
epoch: 1000
next table: 2213
cur table: 2080
epoch: 1000
next table: 5847
cur table: 4855
epoch: 1000
next table: 1920
cur table: 2213
epoch: 1000
next table: 4266
cur table: 5847
epoch: 1000
next table: 1976
cur table: 1920
epoch: 1000
next table: 6199
cur table: 4266
epoch: 1000
next table: 1923
cur table: 1976
epoch: 1000
next table: 4503
cur table: 6199
epoch: 1000
next table: 1897
cur table: 1923
epoch: 1000
next table: 4944
cur table: 4503
epoch: 1000
next table: 1934
cur table: 1897
epoch: 1000
next table: 6136
cur table: 4944
epoch: 1000
next table: 1974
cur table: 1934
epoch: 1000
next table: 3867
cur table: 6136
epoch: 1000
next table: 1911
cur table: 1974
epoch: 1000
next table: 1886
cur table: 1911
epoch: 1000
next table: 5175
cur table: 3867
epoch: 1000
next table: 1899
cur table: 1886
epoch: 1000
next table: 3622
cur table: 5175
epoch: 1000
next table: 1872
cur table: 1899
epoch: 1000
next table: 5576
cur table: 3622
epoch: 1000
next table: 2008
cur table: 1872
epoch: 1000
next table: 4554
cur table: 5576
epoch: 1000
next table: 3704
cur table: 4554
epoch: 1000
next table: 2730
cur table: 2008
Heartbeat CPU 0 instructions: 90000003 cycles: 109797413 heartbeat IPC: 0.325137 cumulative IPC: 0.419249 (Simulation time: 0 hr 22 min 22 sec) 
epoch: 1000
next table: 2806
cur table: 3704
epoch: 1000
next table: 1914
cur table: 2730
epoch: 1000
next table: 2558
cur table: 2806
epoch: 1000
next table: 1902
cur table: 1914
epoch: 1000
next table: 2427
cur table: 2558
epoch: 1000
next table: 1879
cur table: 1902
epoch: 1000
next table: 2484
cur table: 2427
epoch: 1000
next table: 1886
cur table: 1879
epoch: 1000
next table: 1824
cur table: 1886
epoch: 1000
next table: 2441
cur table: 2484
epoch: 1000
next table: 1837
cur table: 1824
Heartbeat CPU 0 instructions: 100000002 cycles: 126028020 heartbeat IPC: 0.61612 cumulative IPC: 0.447871 (Simulation time: 0 hr 24 min 18 sec) 
Finished CPU 0 instructions: 50000000 cycles: 111639216 cumulative IPC: 0.447871 (Simulation time: 0 hr 24 min 18 sec) 

ChampSim completed all CPUs

Region of Interest Statistics

CPU 0 cumulative IPC: 0.447871 instructions: 50000000 cycles: 111639216
ITLB TOTAL     ACCESS:    7833464  HIT:    7815793  MISS:      17671  HIT %:    99.7744  MISS %:   0.225583   MPKI: 0.35342
ITLB LOAD TRANSLATION ACCESS:    7833464  HIT:    7815793  MISS:      17671  HIT %:    99.7744  MISS %:   0.225583   MPKI: 0.35342
ITLB PREFETCH  REQUESTED:          0  ISSUED:          0  USEFUL:          0  USELESS:          0
ITLB USEFUL LOAD PREFETCHES:          0 PREFETCH ISSUED TO LOWER LEVEL:          0  ACCURACY: -nan
ITLB TIMELY PREFETCHES:          0 LATE PREFETCHES: 0 DROPPED PREFETCHES: 0
ITLB PREFETCHES SAME FILL-ORIGIN LEVEL: 0 DIFFERENT FILL-ORIGIN LEVEL: 0
ITLB AVERAGE MISS LATENCY: 10.5391 cycles
ITLB RQ	ACCESS:    8823074	FORWARD:          0	MERGED:     983613	TO_CACHE:    7839461

Revised Interactions: positive negative neutral
ITLB_interactions 0 0 0 -nan -nan -nan
DTLB TOTAL     ACCESS:   14060040  HIT:   13915524  MISS:     144516  HIT %:    98.9722  MISS %:    1.02785   MPKI: 2.89032
DTLB LOAD TRANSLATION ACCESS:   14060040  HIT:   13915524  MISS:     144516  HIT %:    98.9722  MISS %:    1.02785   MPKI: 2.89032
DTLB PREFETCH  REQUESTED:          0  ISSUED:          0  USEFUL:          0  USELESS:          0
DTLB USEFUL LOAD PREFETCHES:          0 PREFETCH ISSUED TO LOWER LEVEL:          0  ACCURACY: -nan
DTLB TIMELY PREFETCHES:          0 LATE PREFETCHES: 0 DROPPED PREFETCHES: 0
DTLB PREFETCHES SAME FILL-ORIGIN LEVEL: 0 DIFFERENT FILL-ORIGIN LEVEL: 0
DTLB AVERAGE MISS LATENCY: 15.3551 cycles
DTLB RQ	ACCESS:   19073308	FORWARD:          0	MERGED:    5009150	TO_CACHE:   14064158

Revised Interactions: positive negative neutral
DTLB_interactions 0 0 0 -nan -nan -nan
STLB TOTAL     ACCESS:     162187  HIT:     155255  MISS:       6932  HIT %:    95.7259  MISS %:    4.27408   MPKI: 0.13864
STLB LOAD TRANSLATION ACCESS:     162187  HIT:     155255  MISS:       6932  HIT %:    95.7259  MISS %:    4.27408   MPKI: 0.13864
STLB PREFETCH  REQUESTED:          0  ISSUED:          0  USEFUL:          0  USELESS:          0
STLB USEFUL LOAD PREFETCHES:          0 PREFETCH ISSUED TO LOWER LEVEL:          0  ACCURACY: -nan
STLB TIMELY PREFETCHES:          0 LATE PREFETCHES: 0 DROPPED PREFETCHES: 0
STLB PREFETCHES SAME FILL-ORIGIN LEVEL: 0 DIFFERENT FILL-ORIGIN LEVEL: 0
STLB AVERAGE MISS LATENCY: 135.436 cycles
STLB RQ	ACCESS:     162187	FORWARD:          0	MERGED:          0	TO_CACHE:     162187

Revised Interactions: positive negative neutral
STLB_interactions 0 0 0 -nan -nan -nan
STLB Hit, L1D data hit: 0
STLB Hit, L2C data hit: 0
STLB Hit, LLC data hit: 0
STLB Hit, LLC data miss: 0
STLB STLB hints to L2: 0
L1D TOTAL     ACCESS:   19029878  HIT:   18868901  MISS:     160977  HIT %:    99.1541  MISS %:   0.845917   MPKI: 3.21954
L1D LOAD      ACCESS:    9315012  HIT:    9171639  MISS:     143373  HIT %:    98.4608  MISS %:    1.53916   MPKI: 2.86746
L1D RFO       ACCESS:    9714866  HIT:    9697262  MISS:      17604  HIT %:    99.8188  MISS %:   0.181207   MPKI: 0.35208
L1D PREFETCH  REQUESTED:          0  ISSUED:          0  USEFUL:          0  USELESS:          0
L1D USEFUL LOAD PREFETCHES:          0 PREFETCH ISSUED TO LOWER LEVEL:          0  ACCURACY: -nan
L1D TIMELY PREFETCHES:          0 LATE PREFETCHES: 0 DROPPED PREFETCHES: 0
L1D PREFETCHES SAME FILL-ORIGIN LEVEL: 0 DIFFERENT FILL-ORIGIN LEVEL: 0
L1D AVERAGE MISS LATENCY: 68.0907 cycles
L1D RQ	ACCESS:   11811770	FORWARD:          0	MERGED:    2226189	TO_CACHE:    9325515
L1D WQ	ACCESS:    9859024	FORWARD:     260066	MERGED:     111231	TO_CACHE:    9747793

Revised Interactions: positive negative neutral
L1D_interactions 0 0 0 -nan -nan -nan
L1D UNIQUE REGIONS ACCESSED: 0
L1D REGIONS CONFLICTS: 0
L1D Cross Page Prefetch Requests: 0
L1D Same Page Prefetch Requests: 0
L1D ROI Sum of L1D PQ occupancy: 0
L1D PREFETCHES PUSHED FROM L2C: 0
L1I TOTAL     ACCESS:    8763545  HIT:    8505429  MISS:     258116  HIT %:    97.0547  MISS %:    2.94534   MPKI: 5.16232
L1I LOAD      ACCESS:    8763545  HIT:    8505429  MISS:     258116  HIT %:    97.0547  MISS %:    2.94534   MPKI: 5.16232
L1I PREFETCH  REQUESTED:          0  ISSUED:          0  USEFUL:          0  USELESS:          0
L1I USEFUL LOAD PREFETCHES:          0 PREFETCH ISSUED TO LOWER LEVEL:          0  ACCURACY: -nan
L1I TIMELY PREFETCHES:          0 LATE PREFETCHES: 0 DROPPED PREFETCHES: 0
L1I PREFETCHES SAME FILL-ORIGIN LEVEL: 0 DIFFERENT FILL-ORIGIN LEVEL: 0
L1I AVERAGE MISS LATENCY: 17.4002 cycles
L1I RQ	ACCESS:   14031156	FORWARD:          0	MERGED:    5208082	TO_CACHE:    8823074

Revised Interactions: positive negative neutral
L1I_interactions 0 0 0 -nan -nan -nan
BTB TOTAL     ACCESS:    6455176  HIT:    6061139  MISS:     394037  HIT %:    93.8958  MISS %:     6.1042   MPKI: 7.88074
BTB BRANCH_DIRECT_JUMP	ACCESS:    1045243  HIT:    1041753  MISS:       3490
BTB BRANCH_INDIRECT	ACCESS:     321894  HIT:     103579  MISS:     218315
BTB BRANCH_CONDITIONAL	ACCESS:    4118131  HIT:    4108360  MISS:       9771
BTB BRANCH_DIRECT_CALL	ACCESS:     381768  HIT:     379264  MISS:       2504
BTB BRANCH_INDIRECT_CALL	ACCESS:     103186  HIT:      11246  MISS:      91940
BTB BRANCH_RETURN	ACCESS:     484954  HIT:     416937  MISS:      68017
BTB BRANCH_OTHER ACCESS:          0  HIT:          0  MISS:          0

L2C TOTAL     ACCESS:     513118  HIT:     433408  MISS:      79710  HIT %:    84.4656  MISS %:    15.5344   MPKI: 1.5942
L2C LOAD      ACCESS:     401489  HIT:     331254  MISS:      70235  HIT %:    82.5064  MISS %:    17.4936   MPKI: 1.4047
L2C DATA LOAD MPKI: 1.2341
L2C INSTRUCTION LOAD MPKI: 0.1706
L2C RFO       ACCESS:      17603  HIT:      12497  MISS:       5106  HIT %:    70.9936  MISS %:    29.0064   MPKI: 0.10212
L2C PREFETCH  ACCESS:      37572  HIT:      36897  MISS:        675  HIT %:    98.2034  MISS %:    1.79655   MPKI: 0.0135
L2C DATA PREFETCH MPKI: 0.0135
L2C INSTRUCTION PREFETCH MPKI: 0
L2C WRITEBACK ACCESS:      48151  HIT:      47579  MISS:        572  HIT %:    98.8121  MISS %:    1.18793   MPKI: 0.01144
L2C LOAD TRANSLATION ACCESS:       8303  HIT:       5181  MISS:       3122  HIT %:    62.3991  MISS %:    37.6009   MPKI: 0.06244
L2C PREFETCH  REQUESTED:      81116  ISSUED:      81116  USEFUL:        600  USELESS:         75
L2C USEFUL LOAD PREFETCHES:        600 PREFETCH ISSUED TO LOWER LEVEL:      41175  ACCURACY: 1.45719
L2C TIMELY PREFETCHES:        600 LATE PREFETCHES: 4 DROPPED PREFETCHES: 0
L2C PREFETCHES SAME FILL-ORIGIN LEVEL: 679 DIFFERENT FILL-ORIGIN LEVEL: 40496
L2C AVERAGE MISS LATENCY: 122.834 cycles
L2C RQ	ACCESS:     427396	FORWARD:          0	MERGED:          0	TO_CACHE:     427395
L2C WQ	ACCESS:      48151	FORWARD:          1	MERGED:          0	TO_CACHE:      48151
L2C PQ	ACCESS:      81116	FORWARD:          0	MERGED:       2083	TO_CACHE:      79033

Revised Interactions: positive negative neutral
L2C_interactions 577 76 79 78.8251 10.3825 10.7923
L2C Instructions Evicting Data 6813
L2C Translations Evicting Data 2554
L2C Data Evicting Data 56920
L2C Instructions Evicting Instructions 986
L2C Translations Evicting Instructions 316
L2C Data Evicting Instructions 6226
L2C Instructions Evicting Translations 344
L2C Translations Evicting Translations 124
L2C Data Evicting Translations 2450
L2C Dense regions hint from L2: 0
PSCL5 TOTAL     ACCESS:       6932  HIT:       6932  MISS:          0  HIT %:        100  MISS %:          0   MPKI: 0
PSCL5 LOAD TRANSLATION ACCESS:       6932  HIT:       6932  MISS:          0  HIT %:        100  MISS %:          0   MPKI: 0
PSCL5 PREFETCH  REQUESTED:          0  ISSUED:          0  USEFUL:          0  USELESS:          0
PSCL5 USEFUL LOAD PREFETCHES:          0 PREFETCH ISSUED TO LOWER LEVEL:          0  ACCURACY: -nan
PSCL5 TIMELY PREFETCHES:          0 LATE PREFETCHES: 0 DROPPED PREFETCHES: 0
PSCL5 PREFETCHES SAME FILL-ORIGIN LEVEL: 0 DIFFERENT FILL-ORIGIN LEVEL: 0

Revised Interactions: positive negative neutral
PSCL5_interactions 0 0 0 -nan -nan -nan
PSCL4 TOTAL     ACCESS:       6932  HIT:       6932  MISS:          0  HIT %:        100  MISS %:          0   MPKI: 0
PSCL4 LOAD TRANSLATION ACCESS:       6932  HIT:       6932  MISS:          0  HIT %:        100  MISS %:          0   MPKI: 0
PSCL4 PREFETCH  REQUESTED:          0  ISSUED:          0  USEFUL:          0  USELESS:          0
PSCL4 USEFUL LOAD PREFETCHES:          0 PREFETCH ISSUED TO LOWER LEVEL:          0  ACCURACY: -nan
PSCL4 TIMELY PREFETCHES:          0 LATE PREFETCHES: 0 DROPPED PREFETCHES: 0
PSCL4 PREFETCHES SAME FILL-ORIGIN LEVEL: 0 DIFFERENT FILL-ORIGIN LEVEL: 0

Revised Interactions: positive negative neutral
PSCL4_interactions 0 0 0 -nan -nan -nan
PSCL3 TOTAL     ACCESS:       6932  HIT:       6932  MISS:          0  HIT %:        100  MISS %:          0   MPKI: 0
PSCL3 LOAD TRANSLATION ACCESS:       6932  HIT:       6932  MISS:          0  HIT %:        100  MISS %:          0   MPKI: 0
PSCL3 PREFETCH  REQUESTED:          0  ISSUED:          0  USEFUL:          0  USELESS:          0
PSCL3 USEFUL LOAD PREFETCHES:          0 PREFETCH ISSUED TO LOWER LEVEL:          0  ACCURACY: -nan
PSCL3 TIMELY PREFETCHES:          0 LATE PREFETCHES: 0 DROPPED PREFETCHES: 0
PSCL3 PREFETCHES SAME FILL-ORIGIN LEVEL: 0 DIFFERENT FILL-ORIGIN LEVEL: 0

Revised Interactions: positive negative neutral
PSCL3_interactions 0 0 0 -nan -nan -nan
PSCL2 TOTAL     ACCESS:       6932  HIT:       5508  MISS:       1424  HIT %:    79.4576  MISS %:    20.5424   MPKI: 0.02848
PSCL2 LOAD TRANSLATION ACCESS:       6932  HIT:       5508  MISS:       1424  HIT %:    79.4576  MISS %:    20.5424   MPKI: 0.02848
PSCL2 PREFETCH  REQUESTED:          0  ISSUED:          0  USEFUL:          0  USELESS:          0
PSCL2 USEFUL LOAD PREFETCHES:          0 PREFETCH ISSUED TO LOWER LEVEL:          0  ACCURACY: -nan
PSCL2 TIMELY PREFETCHES:          0 LATE PREFETCHES: 0 DROPPED PREFETCHES: 0
PSCL2 PREFETCHES SAME FILL-ORIGIN LEVEL: 0 DIFFERENT FILL-ORIGIN LEVEL: 0

Revised Interactions: positive negative neutral
PSCL2_interactions 0 0 0 -nan -nan -nan
LLC TOTAL     ACCESS:     135262  HIT:      62908  MISS:      72354  HIT %:    46.5083  MISS %:    53.4917   MPKI: 1.44708
LLC LOAD      ACCESS:      70231  HIT:      24508  MISS:      45723  HIT %:    34.8963  MISS %:    65.1037   MPKI: 0.91446
LLC RFO       ACCESS:       5106  HIT:       1592  MISS:       3514  HIT %:     31.179  MISS %:     68.821   MPKI: 0.07028
LLC PREFETCH  ACCESS:      39615  HIT:      18457  MISS:      21158  HIT %:    46.5909  MISS %:    53.4091   MPKI: 0.42316
LLC WRITEBACK ACCESS:      17188  HIT:      16872  MISS:        316  HIT %:    98.1615  MISS %:    1.83849   MPKI: 0.00632
LLC LOAD TRANSLATION ACCESS:       3122  HIT:       1479  MISS:       1643  HIT %:    47.3735  MISS %:    52.6265   MPKI: 0.03286
LLC PREFETCH  REQUESTED:          0  ISSUED:          0  USEFUL:       9975  USELESS:       6382
LLC USEFUL LOAD PREFETCHES:       9975 PREFETCH ISSUED TO LOWER LEVEL:      22130  ACCURACY: 45.0746
LLC TIMELY PREFETCHES:       9975 LATE PREFETCHES: 972 DROPPED PREFETCHES: 0
LLC PREFETCHES SAME FILL-ORIGIN LEVEL: 22084 DIFFERENT FILL-ORIGIN LEVEL: 0
LLC AVERAGE MISS LATENCY: 145.795 cycles
LLC RQ	ACCESS:      78459	FORWARD:          0	MERGED:          0	TO_CACHE:      78459
LLC WQ	ACCESS:      17188	FORWARD:          0	MERGED:          0	TO_CACHE:      17188
LLC PQ	ACCESS:      41175	FORWARD:          0	MERGED:         54	TO_CACHE:      41121

Revised Interactions: positive negative neutral
LLC_interactions 6655 8367 4107 34.7901 43.7399 21.47
LLC Dense regions hint to LLC: 0

RAW hits: 721072
Loads Generated: 12532841
Loads sent to L1D: 11811770
Stores Generated: 9859017
Stores sent to L1D: 9859024
Major fault: 0 Minor fault: 5057
Allocated PAGES: 5057
 All Calls: 148445
 Critical Calls: 148445
------------------
Depth Distribution
------------------
depth 0: 0
depth 1: 67756
depth 2: 9761
depth 3: 4441
depth 4: 2074
depth 5: 558
depth 6: 45
depth 7: 9
depth 8: 2
depth 9: 2
depth 10: 2
depth 11: 1
depth 12: 1
depth 13: 0
depth 14: 0
depth 15: 0
depth 16: 0
depth 17: 0
depth 18: 0
depth 19: 0
depth 20: 0
depth 21: 0
depth 22: 0
depth 23: 0
depth 24: 0
depth 25: 0
depth 26: 0
depth 27: 0
depth 28: 0
depth 29: 0
Total: 84652
-----------------------------
-----------------------------
	Captured at Filter
-----------------------------
depth 0: 0
depth 1: 1452
depth 2: 1115
depth 3: 1108
depth 4: 854
depth 5: 416
depth 6: 0
depth 7: 0
depth 8: 0
depth 9: 0
depth 10: 0
depth 11: 0
depth 12: 0
depth 13: 0
depth 14: 0
depth 15: 0
depth 16: 0
depth 17: 0
depth 18: 0
depth 19: 0
depth 20: 0
depth 21: 0
depth 22: 0
depth 23: 0
depth 24: 0
depth 25: 0
depth 26: 0
depth 27: 0
depth 28: 0
depth 29: 0
-----------------------------
-----------------------------
		Lost at Page
-----------------------------
depth 0: 0
depth 1: 2396
depth 2: 305
depth 3: 182
depth 4: 108
depth 5: 52
depth 6: 12
depth 7: 10
depth 8: 3
depth 9: 0
depth 10: 0
depth 11: 0
depth 12: 0
depth 13: 0
depth 14: 0
depth 15: 0
depth 16: 0
depth 17: 0
depth 18: 0
depth 19: 0
depth 20: 0
depth 21: 0
depth 22: 0
depth 23: 0
depth 24: 0
depth 25: 0
depth 26: 0
depth 27: 0
depth 28: 0
depth 29: 0
-----------------------------
-----------------------------
	Lost due to PQ Size
-----------------------------
0
-----------------------------
ST read accesses: 123420
ST write accesses: 19953
PT read accesses: 1517498
PT write accesses: 158103
FILTER read accesses: 309137
FILTER write accesses: 82983
GHR read accesses: 180776
GHR write accesses: 2891
GHR counter read accesses: 1195434
GHR counter write accesses: 145486
ST tag read accesses: 65532904
ST tag write accesses: 9125881

DRAM Statistics
 CHANNEL 0
 RQ ROW_BUFFER_HIT:      17757  ROW_BUFFER_MISS:      54281
 DBUS_CONGESTED:          6
 WQ ROW_BUFFER_HIT:       1516  ROW_BUFFER_MISS:       7076  FULL:          0

 AVG_CONGESTED_CYCLE: 4
 All warmup complete: 2
Channel 0 Bank busy for read cycles: 0
Channel 0 Bank busy for write cycles: 0
Channel 0
Rank 0
0banks busy for read cycles: 103384481
0banks busy for write cycles: 6712
1banks busy for read cycles: 5291877
1banks busy for write cycles: 1093084
2banks busy for read cycles: 1331405
2banks busy for write cycles: 171872
3banks busy for read cycles: 238754
3banks busy for write cycles: 34183
4banks busy for read cycles: 51768
4banks busy for write cycles: 6500
5banks busy for read cycles: 14366
5banks busy for write cycles: 1815
6banks busy for read cycles: 6042
6banks busy for write cycles: 209
7banks busy for read cycles: 2948
7banks busy for write cycles: 288
8banks busy for read cycles: 2913
8banks busy for write cycles: 0

CPU 0 Branch Prediction Accuracy: 96.2601% MPKI: 6.26918 Average ROB Occupancy at Mispredict: 28.6718
Branch types
NOT_BRANCH: 41618174 83.2363%
BRANCH_DIRECT_JUMP: 1045243 2.09049%
BRANCH_INDIRECT: 321894 0.643788%
BRANCH_CONDITIONAL: 6044455 12.0889%
BRANCH_DIRECT_CALL: 381768 0.763536%
BRANCH_INDIRECT_CALL: 103186 0.206372%
BRANCH_RETURN: 484954 0.969908%
BRANCH_OTHER: 0 0%

@sumon_overall_L1D         0         0         0         0         0         0         0
@Sumon_Early_by_class_L1D         0         0         0         0
@Sumon_Late_by_class_L1D         0         0         0         0

@Sumon_Early_by_cycle_L1D         0         0         0         0         0         0         0         0         0         0         0         0
@Sumon_Late_by_cycle_L1D         0         0         0         0         0         0
@Sumon_Early_stream_L1D         0         0         0         0         0         0         0         0         0         0         0         0
@Sumon_Early_CS_L1D         0         0         0         0         0         0         0         0         0         0         0         0
@Sumon_Early_CPLX_L1D         0         0         0         0         0         0         0         0         0         0         0         0
@Sumon_Late_stream_L1D         0         0         0         0         0         0
@Sumon_Late_CS_L1D         0         0         0         0         0         0
@Sumon_Late_CPLX_L1D         0         0         0         0         0         0
@sumon_overall_L2C       600         4         0        75       675     81116     81116
@Sumon_Early_by_class_L2C         0         0         0         0
@Sumon_Late_by_class_L2C         0         0         0         0

@Sumon_Early_by_cycle_L2C        83        30         8        22         0       159       203        35        10        31         5        14
@Sumon_Late_by_cycle_L2C         2         2         0         0         0         0
@Sumon_Early_stream_L2C         0         0         0         0         0         0         0         0         0         0         0         0
@Sumon_Early_CS_L2C         0         0         0         0         0         0         0         0         0         0         0         0
@Sumon_Early_CPLX_L2C         0         0         0         0         0         0         0         0         0         0         0         0
@Sumon_Late_stream_L2C         0         0         0         0         0         0
@Sumon_Late_CS_L2C         0         0         0         0         0         0
@Sumon_Late_CPLX_L2C         0         0         0         0         0         0
DRAM PAGES: 1048576
Allocated PAGES: 5057
