Initialize SIGNATURE TABLE
ST_SET: 1
ST_WAY: 256
ST_TAG_BIT: 16
ST_TAG_MASK: ffff

Initialize PATTERN TABLE
PT_SET: 512
PT_WAY: 4
SIG_DELTA_BIT: 7
C_SIG_BIT: 4
C_DELTA_BIT: 4

Initialize PREFETCH FILTER
FILTER_SET: 1024

*** ChampSim Multicore Out-of-Order Simulator ***

Warmup Instructions: 50000000
Simulation Instructions: 50000000
Number of CPUs: 1
LLC sets: 2048
LLC ways: 16
Off-chip DRAM Size: 4096 MB Channels: 1 Width: 64-bit Data Rate: 6400 MT/s
CPU 0 runs ../../biswa/SPEC2017Traces/603.bwaves_s-1740B.champsimtrace.xz
.xz
CPU 0 Bimodal branch predictor
BTB has LRU replacement policy
ITLB has LRU replacement policy
DTLB has LRU replacement policy
STLB has LRU replacement policy
L1I has LRU replacement policy
L1D has LRU replacement policy
ST_WAYS: 256
PT_SETS: 512
Initialize DRRIP state for L2C
Initialize DRRIP state for LLC
epoch: 1000
next table: 2127
cur table: 10528
epoch: 1000
next table: 2069
cur table: 2127
epoch: 1000
next table: 2071
cur table: 2069
epoch: 1000
next table: 2063
cur table: 2071
epoch: 1000
next table: 2073
cur table: 2063
epoch: 1000
next table: 2070
cur table: 2073
epoch: 1000
next table: 2067
cur table: 2070
epoch: 1000
next table: 2064
cur table: 2067
epoch: 1000
next table: 2065
cur table: 2064
epoch: 1000
next table: 2066
cur table: 2065
epoch: 1000
next table: 2065
cur table: 2066
epoch: 1000
next table: 2054
cur table: 2065
epoch: 1000
next table: 2062
cur table: 2054
epoch: 1000
next table: 2058
cur table: 2062
epoch: 1000
next table: 2061
cur table: 2058
epoch: 1000
next table: 2061
cur table: 2061
epoch: 1000
next table: 2066
cur table: 2061
epoch: 1000
next table: 2066
cur table: 2066
epoch: 1000
next table: 2066
cur table: 2066
epoch: 1000
next table: 2066
cur table: 2066
epoch: 1000
next table: 2062
cur table: 2066
epoch: 1000
next table: 2063
cur table: 2062
epoch: 1000
next table: 2071
cur table: 2063
epoch: 1000
next table: 2065
cur table: 2071
epoch: 1000
next table: 2069
cur table: 2065
epoch: 1000
next table: 1779
cur table: 20222
epoch: 1000
next table: 2054
cur table: 2069
epoch: 1000
next table: 1598
cur table: 1779
epoch: 1000
next table: 2071
cur table: 2054
epoch: 1000
next table: 1587
cur table: 1598
epoch: 1000
next table: 2062
cur table: 2071
epoch: 1000
next table: 1567
cur table: 1587
epoch: 1000
next table: 2067
cur table: 2062
epoch: 1000
next table: 1602
cur table: 1567
epoch: 1000
next table: 2065
cur table: 2067
epoch: 1000
next table: 1581
cur table: 1602
epoch: 1000
next table: 2062
cur table: 2065
epoch: 1000
next table: 1574
cur table: 1581
epoch: 1000
next table: 2067
cur table: 2062
epoch: 1000
next table: 1569
cur table: 1574
epoch: 1000
next table: 2065
cur table: 2067
epoch: 1000
next table: 1572
cur table: 1569
epoch: 1000
next table: 2062
cur table: 2065
epoch: 1000
next table: 1562
cur table: 1572
epoch: 1000
next table: 2064
cur table: 2062
epoch: 1000
next table: 1581
cur table: 1562
epoch: 1000
next table: 2061
cur table: 2064
epoch: 1000
next table: 1588
cur table: 1581
epoch: 1000
next table: 2066
cur table: 2061
epoch: 1000
next table: 1589
cur table: 1588
epoch: 1000
next table: 2060
cur table: 2066
epoch: 1000
next table: 1586
cur table: 1589
epoch: 1000
next table: 2064
cur table: 2060
epoch: 1000
next table: 1576
cur table: 1586
epoch: 1000
next table: 2062
cur table: 2064
epoch: 1000
next table: 1558
cur table: 1576
epoch: 1000
next table: 2065
cur table: 2062
epoch: 1000
next table: 1575
cur table: 1558
epoch: 1000
next table: 2062
cur table: 2065
epoch: 1000
next table: 1575
cur table: 1575
epoch: 1000
next table: 2066
cur table: 2062
epoch: 1000
next table: 1578
cur table: 1575
epoch: 1000
next table: 2063
cur table: 2066
epoch: 1000
next table: 1558
cur table: 1578
epoch: 1000
next table: 2067
cur table: 2063
epoch: 1000
next table: 1570
cur table: 1558
epoch: 1000
next table: 2060
cur table: 2067
epoch: 1000
next table: 1564
cur table: 1570
epoch: 1000
next table: 2067
cur table: 2060
epoch: 1000
next table: 1585
cur table: 1564
epoch: 1000
next table: 2063
cur table: 2067
epoch: 1000
next table: 1558
cur table: 1585
epoch: 1000
next table: 2061
cur table: 2063
epoch: 1000
next table: 1563
cur table: 1558
epoch: 1000
next table: 2064
cur table: 2061
epoch: 1000
next table: 1572
cur table: 1563
epoch: 1000
next table: 2063
cur table: 2064
epoch: 1000
next table: 1588
cur table: 1572
epoch: 1000
next table: 2060
cur table: 2063
epoch: 1000
next table: 1568
cur table: 1588
epoch: 1000
next table: 2064
cur table: 2060
epoch: 1000
next table: 1594
cur table: 1568
epoch: 1000
next table: 2070
cur table: 2064
epoch: 1000
next table: 1589
cur table: 1594
epoch: 1000
next table: 2065
cur table: 2070
epoch: 1000
next table: 1588
cur table: 1589
epoch: 1000
next table: 2067
cur table: 2065
epoch: 1000
next table: 1578
cur table: 1588
epoch: 1000
next table: 2061
cur table: 2067
epoch: 1000
next table: 1573
cur table: 1578
epoch: 1000
next table: 2061
cur table: 2061
epoch: 1000
next table: 1602
cur table: 1573
epoch: 1000
next table: 2073
cur table: 2061
epoch: 1000
next table: 1573
cur table: 1602
epoch: 1000
next table: 2059
cur table: 2073
epoch: 1000
next table: 1596
cur table: 1573
epoch: 1000
next table: 2069
cur table: 2059
epoch: 1000
next table: 1594
cur table: 1596
epoch: 1000
next table: 2057
cur table: 2069
epoch: 1000
next table: 1591
cur table: 1594
epoch: 1000
next table: 2072
cur table: 2057
epoch: 1000
next table: 1564
cur table: 1591
epoch: 1000
next table: 2061
cur table: 2072
epoch: 1000
next table: 1572
cur table: 1564
epoch: 1000
next table: 2069
cur table: 2061
epoch: 1000
next table: 1576
cur table: 1572
epoch: 1000
next table: 2063
cur table: 2069
epoch: 1000
next table: 1565
cur table: 1576
epoch: 1000
next table: 2064
cur table: 2063
epoch: 1000
next table: 1598
cur table: 1565
epoch: 1000
next table: 2058
cur table: 2064
epoch: 1000
next table: 1535
cur table: 1598
epoch: 1000
next table: 2066
cur table: 2058
epoch: 1000
next table: 1575
cur table: 1535
epoch: 1000
next table: 2060
cur table: 2066
epoch: 1000
next table: 1584
cur table: 1575
epoch: 1000
next table: 2067
cur table: 2060
epoch: 1000
next table: 1588
cur table: 1584
epoch: 1000
next table: 2067
cur table: 2067
epoch: 1000
next table: 1584
cur table: 1588
epoch: 1000
next table: 2059
cur table: 2067
epoch: 1000
next table: 1560
cur table: 1584
epoch: 1000
next table: 2065
cur table: 2059
epoch: 1000
next table: 1582
cur table: 1560
epoch: 1000
next table: 2066
cur table: 2065
epoch: 1000
next table: 1567
cur table: 1582
epoch: 1000
next table: 2060
cur table: 2066
epoch: 1000
next table: 1582
cur table: 1567
epoch: 1000
next table: 2064
cur table: 2060
epoch: 1000
next table: 1569
cur table: 1582
epoch: 1000
next table: 2060
cur table: 2064
epoch: 1000
next table: 1577
cur table: 1569
epoch: 1000
next table: 2064
cur table: 2060
epoch: 1000
next table: 1587
cur table: 1577
epoch: 1000
next table: 2068
cur table: 2064
epoch: 1000
next table: 1554
cur table: 1587
epoch: 1000
next table: 2059
cur table: 2068
epoch: 1000
next table: 1560
cur table: 1554
epoch: 1000
next table: 2066
cur table: 2059
epoch: 1000
next table: 1553
cur table: 1560
epoch: 1000
next table: 2066
cur table: 2066
epoch: 1000
next table: 1581
cur table: 1553
epoch: 1000
next table: 2061
cur table: 2066
epoch: 1000
next table: 1555
cur table: 1581
epoch: 1000
next table: 2067
cur table: 2061
epoch: 1000
next table: 1587
cur table: 1555
epoch: 1000
next table: 2059
cur table: 2067
epoch: 1000
next table: 1552
cur table: 1587
epoch: 1000
next table: 2068
cur table: 2059
epoch: 1000
next table: 1588
cur table: 1552
epoch: 1000
next table: 2060
cur table: 2068
epoch: 1000
next table: 1592
cur table: 1588
epoch: 1000
next table: 2064
cur table: 2060
epoch: 1000
next table: 1564
cur table: 1592
epoch: 1000
next table: 2064
cur table: 2064
epoch: 1000
next table: 1587
cur table: 1564
epoch: 1000
next table: 2067
cur table: 2064
epoch: 1000
next table: 1561
cur table: 1587
epoch: 1000
next table: 2059
cur table: 2067
epoch: 1000
next table: 1598
cur table: 1561
epoch: 1000
next table: 2071
cur table: 2059
epoch: 1000
next table: 1564
cur table: 1598
epoch: 1000
next table: 2062
cur table: 2071
epoch: 1000
next table: 1572
cur table: 1564
epoch: 1000
next table: 2062
cur table: 2062
epoch: 1000
next table: 1568
cur table: 1572
epoch: 1000
next table: 2063
cur table: 2062
epoch: 1000
next table: 1556
cur table: 1568
epoch: 1000
next table: 2061
cur table: 2063
epoch: 1000
next table: 1592
cur table: 1556
epoch: 1000
next table: 2063
cur table: 2061
epoch: 1000
next table: 1576
cur table: 1592
epoch: 1000
next table: 2061
cur table: 2063
epoch: 1000
next table: 1579
cur table: 1576
epoch: 1000
next table: 2060
cur table: 2061
epoch: 1000
next table: 1586
cur table: 1579
epoch: 1000
next table: 2069
cur table: 2060
epoch: 1000
next table: 1581
cur table: 1586
epoch: 1000
next table: 2055
cur table: 2069
epoch: 1000
next table: 1589
cur table: 1581
epoch: 1000
next table: 2067
cur table: 2055
epoch: 1000
next table: 1581
cur table: 1589
epoch: 1000
next table: 2065
cur table: 2067
epoch: 1000
next table: 1584
cur table: 1581
epoch: 1000
next table: 2064
cur table: 2065
epoch: 1000
next table: 1577
cur table: 1584
epoch: 1000
next table: 2064
cur table: 2064
epoch: 1000
next table: 1576
cur table: 1577
epoch: 1000
next table: 2067
cur table: 2064
epoch: 1000
next table: 1553
cur table: 1576
epoch: 1000
next table: 2057
cur table: 2067
epoch: 1000
next table: 1562
cur table: 1553
epoch: 1000
next table: 2071
cur table: 2057
epoch: 1000
next table: 1596
cur table: 1562
epoch: 1000
next table: 2061
cur table: 2071
epoch: 1000
next table: 1562
cur table: 1596
epoch: 1000
next table: 2067
cur table: 2061
epoch: 1000
next table: 1575
cur table: 1562
epoch: 1000
next table: 2061
cur table: 2067
epoch: 1000
next table: 1551
cur table: 1575
epoch: 1000
next table: 2063
cur table: 2061
epoch: 1000
next table: 1581
cur table: 1551
epoch: 1000
next table: 2065
cur table: 2063
epoch: 1000
next table: 1574
cur table: 1581
epoch: 1000
next table: 2065
cur table: 2065
epoch: 1000
next table: 1576
cur table: 1574
epoch: 1000
next table: 2057
cur table: 2065
epoch: 1000
next table: 1548
cur table: 1576
epoch: 1000
next table: 2067
cur table: 2057
epoch: 1000
next table: 1567
cur table: 1548
epoch: 1000
next table: 2065
cur table: 2067
epoch: 1000
next table: 1581
cur table: 1567
epoch: 1000
next table: 2068
cur table: 2065
epoch: 1000
next table: 1628
cur table: 1581
epoch: 1000
next table: 2061
cur table: 2068
epoch: 1000
next table: 1618
cur table: 1628
epoch: 1000
next table: 2067
cur table: 2061
epoch: 1000
next table: 1599
cur table: 1618
epoch: 1000
next table: 2065
cur table: 2067
epoch: 1000
next table: 1578
cur table: 1599
epoch: 1000
next table: 2062
cur table: 2065
epoch: 1000
next table: 1568
cur table: 1578
epoch: 1000
next table: 2066
cur table: 2062
epoch: 1000
next table: 1615
cur table: 1568
epoch: 1000
next table: 2067
cur table: 2066
epoch: 1000
next table: 1592
cur table: 1615
epoch: 1000
next table: 2057
cur table: 2067
epoch: 1000
next table: 1609
cur table: 1592
epoch: 1000
next table: 2073
cur table: 2057
epoch: 1000
next table: 1590
cur table: 1609
epoch: 1000
next table: 2058
cur table: 2073
epoch: 1000
next table: 1593
cur table: 1590
epoch: 1000
next table: 2069
cur table: 2058
epoch: 1000
next table: 1603
cur table: 1593
epoch: 1000
next table: 2064
cur table: 2069
epoch: 1000
next table: 1583
cur table: 1603
epoch: 1000
next table: 2065
cur table: 2064
epoch: 1000
next table: 1553
cur table: 1583
epoch: 1000
next table: 2061
cur table: 2065
epoch: 1000
next table: 1550
cur table: 1553
epoch: 1000
next table: 2069
cur table: 2061
epoch: 1000
next table: 1591
cur table: 1550
epoch: 1000
next table: 2055
cur table: 2069
epoch: 1000
next table: 1585
cur table: 1591
epoch: 1000
next table: 2066
cur table: 2055
epoch: 1000
next table: 1580
cur table: 1585
epoch: 1000
next table: 2070
cur table: 2066
epoch: 1000
next table: 1577
cur table: 1580
epoch: 1000
next table: 2069
cur table: 2070
epoch: 1000
next table: 1570
cur table: 1577
epoch: 1000
next table: 2059
cur table: 2069
epoch: 1000
next table: 1580
cur table: 1570
epoch: 1000
next table: 2061
cur table: 2059
epoch: 1000
next table: 1596
cur table: 1580
epoch: 1000
next table: 2061
cur table: 2061
epoch: 1000
next table: 1594
cur table: 1596
epoch: 1000
next table: 2069
cur table: 2061
epoch: 1000
next table: 1571
cur table: 1594
epoch: 1000
next table: 2060
cur table: 2069
epoch: 1000
next table: 1563
cur table: 1571
epoch: 1000
next table: 2069
cur table: 2060
epoch: 1000
next table: 1575
cur table: 1563
epoch: 1000
next table: 2059
cur table: 2069
epoch: 1000
next table: 1575
cur table: 1575
epoch: 1000
next table: 2071
cur table: 2059
epoch: 1000
next table: 1591
cur table: 1575
epoch: 1000
next table: 2058
cur table: 2071
epoch: 1000
next table: 1559
cur table: 1591
epoch: 1000
next table: 2070
cur table: 2058
epoch: 1000
next table: 1571
cur table: 1559
epoch: 1000
next table: 2060
cur table: 2070
epoch: 1000
next table: 1561
cur table: 1571
epoch: 1000
next table: 2066
cur table: 2060
epoch: 1000
next table: 1601
cur table: 1561
epoch: 1000
next table: 2059
cur table: 2066
epoch: 1000
next table: 1595
cur table: 1601
epoch: 1000
next table: 2061
cur table: 2059
epoch: 1000
next table: 1566
cur table: 1595
epoch: 1000
next table: 2065
cur table: 2061
epoch: 1000
next table: 1564
cur table: 1566
epoch: 1000
next table: 2064
cur table: 2065
epoch: 1000
next table: 1570
cur table: 1564
epoch: 1000
next table: 2061
cur table: 2064
epoch: 1000
next table: 1570
cur table: 1570
epoch: 1000
next table: 2067
cur table: 2061
epoch: 1000
next table: 1585
cur table: 1570
epoch: 1000
next table: 2054
cur table: 2067
epoch: 1000
next table: 1600
cur table: 1585
epoch: 1000
next table: 2069
cur table: 2054
epoch: 1000
next table: 1593
cur table: 1600
epoch: 1000
next table: 2050
cur table: 2069
epoch: 1000
next table: 1590
cur table: 1593
epoch: 1000
next table: 2072
cur table: 2050
epoch: 1000
next table: 1587
cur table: 1590
epoch: 1000
next table: 2055
cur table: 2072
epoch: 1000
next table: 1548
cur table: 1587
epoch: 1000
next table: 2069
cur table: 2055
epoch: 1000
next table: 1581
cur table: 1548
epoch: 1000
next table: 2066
cur table: 2069
epoch: 1000
next table: 1567
cur table: 1581
epoch: 1000
next table: 2061
cur table: 2066
epoch: 1000
next table: 1582
cur table: 1567
epoch: 1000
next table: 2059
cur table: 2061
epoch: 1000
next table: 1597
cur table: 1582
epoch: 1000
next table: 2067
cur table: 2059
epoch: 1000
next table: 1548
cur table: 1597
epoch: 1000
next table: 2063
cur table: 2067
epoch: 1000
next table: 1553
cur table: 1548
epoch: 1000
next table: 2073
cur table: 2063
epoch: 1000
next table: 1595
cur table: 1553
epoch: 1000
next table: 2058
cur table: 2073
epoch: 1000
next table: 1554
cur table: 1595
epoch: 1000
next table: 2059
cur table: 2058
epoch: 1000
next table: 1554
cur table: 1554
epoch: 1000
next table: 2060
cur table: 2059
epoch: 1000
next table: 1574
cur table: 1554
epoch: 1000
next table: 2059
cur table: 2060
epoch: 1000
next table: 1591
cur table: 1574
epoch: 1000
next table: 2062
cur table: 2059
epoch: 1000
next table: 1569
cur table: 1591
epoch: 1000
next table: 2067
cur table: 2062
epoch: 1000
next table: 1582
cur table: 1569
epoch: 1000
next table: 2062
cur table: 2067
epoch: 1000
next table: 1588
cur table: 1582
epoch: 1000
next table: 2069
cur table: 2062
epoch: 1000
next table: 1578
cur table: 1588
epoch: 1000
next table: 2059
cur table: 2069
epoch: 1000
next table: 1591
cur table: 1578
epoch: 1000
next table: 2067
cur table: 2059
epoch: 1000
next table: 1580
cur table: 1591
epoch: 1000
next table: 2059
cur table: 2067
epoch: 1000
next table: 1574
cur table: 1580
epoch: 1000
next table: 2063
cur table: 2059
epoch: 1000
next table: 1585
cur table: 1574
epoch: 1000
next table: 2068
cur table: 2063
epoch: 1000
next table: 1597
cur table: 1585
epoch: 1000
next table: 2065
cur table: 2068
Heartbeat CPU 0 instructions: 10000000 cycles: 3313630 heartbeat IPC: 3.01784 cumulative IPC: 3.01784 (Simulation time: 0 hr 2 min 30 sec) 
epoch: 1000
next table: 1579
cur table: 1597
epoch: 1000
next table: 2066
cur table: 2065
epoch: 1000
next table: 1584
cur table: 1579
epoch: 1000
next table: 2068
cur table: 2066
epoch: 1000
next table: 1565
cur table: 1584
epoch: 1000
next table: 2062
cur table: 2068
epoch: 1000
next table: 1601
cur table: 1565
epoch: 1000
next table: 2065
cur table: 2062
epoch: 1000
next table: 1566
cur table: 1601
epoch: 1000
next table: 2058
cur table: 2065
epoch: 1000
next table: 1555
cur table: 1566
epoch: 1000
next table: 2070
cur table: 2058
epoch: 1000
next table: 1563
cur table: 1555
epoch: 1000
next table: 2063
cur table: 2070
epoch: 1000
next table: 1585
cur table: 1563
epoch: 1000
next table: 2063
cur table: 2063
epoch: 1000
next table: 1585
cur table: 1585
epoch: 1000
next table: 2063
cur table: 2063
epoch: 1000
next table: 1583
cur table: 1585
epoch: 1000
next table: 2064
cur table: 2063
epoch: 1000
next table: 1551
cur table: 1583
epoch: 1000
next table: 2066
cur table: 2064
epoch: 1000
next table: 1540
cur table: 1551
epoch: 1000
next table: 2066
cur table: 2066
epoch: 1000
next table: 1589
cur table: 1540
epoch: 1000
next table: 2060
cur table: 2066
epoch: 1000
next table: 1588
cur table: 1589
epoch: 1000
next table: 2065
cur table: 2060
epoch: 1000
next table: 1553
cur table: 1588
epoch: 1000
next table: 2059
cur table: 2065
epoch: 1000
next table: 1579
cur table: 1553
epoch: 1000
next table: 2065
cur table: 2059
epoch: 1000
next table: 1563
cur table: 1579
epoch: 1000
next table: 2059
cur table: 2065
epoch: 1000
next table: 1565
cur table: 1563
epoch: 1000
next table: 2070
cur table: 2059
epoch: 1000
next table: 1579
cur table: 1565
epoch: 1000
next table: 2061
cur table: 2070
epoch: 1000
next table: 1565
cur table: 1579
epoch: 1000
next table: 2062
cur table: 2061
epoch: 1000
next table: 1598
cur table: 1565
epoch: 1000
next table: 2060
cur table: 2062
epoch: 1000
next table: 1577
cur table: 1598
epoch: 1000
next table: 2064
cur table: 2060
epoch: 1000
next table: 1584
cur table: 1577
epoch: 1000
next table: 2067
cur table: 2064
epoch: 1000
next table: 1609
cur table: 1584
epoch: 1000
next table: 2058
cur table: 2067
epoch: 1000
next table: 1581
cur table: 1609
epoch: 1000
next table: 2055
cur table: 2058
epoch: 1000
next table: 1578
cur table: 1581
epoch: 1000
next table: 2069
cur table: 2055
epoch: 1000
next table: 1584
cur table: 1578
epoch: 1000
next table: 2059
cur table: 2069
epoch: 1000
next table: 1571
cur table: 1584
epoch: 1000
next table: 2068
cur table: 2059
epoch: 1000
next table: 1587
cur table: 1571
epoch: 1000
next table: 2065
cur table: 2068
epoch: 1000
next table: 1589
cur table: 1587
epoch: 1000
next table: 2065
cur table: 2065
epoch: 1000
next table: 1575
cur table: 1589
epoch: 1000
next table: 2058
cur table: 2065
epoch: 1000
next table: 1593
cur table: 1575
epoch: 1000
next table: 2060
cur table: 2058
epoch: 1000
next table: 1567
cur table: 1593
epoch: 1000
next table: 2058
cur table: 2060
epoch: 1000
next table: 1574
cur table: 1567
epoch: 1000
next table: 2066
cur table: 2058
epoch: 1000
next table: 1568
cur table: 1574
epoch: 1000
next table: 2055
cur table: 2066
epoch: 1000
next table: 1579
cur table: 1568
epoch: 1000
next table: 2070
cur table: 2055
epoch: 1000
next table: 1596
cur table: 1579
epoch: 1000
next table: 2060
cur table: 2070
epoch: 1000
next table: 1576
cur table: 1596
epoch: 1000
next table: 2069
cur table: 2060
epoch: 1000
next table: 1579
cur table: 1576
epoch: 1000
next table: 2061
cur table: 2069
epoch: 1000
next table: 1562
cur table: 1579
epoch: 1000
next table: 2062
cur table: 2061
epoch: 1000
next table: 1582
cur table: 1562
epoch: 1000
next table: 2061
cur table: 2062
epoch: 1000
next table: 1595
cur table: 1582
epoch: 1000
next table: 2064
cur table: 2061
epoch: 1000
next table: 1572
cur table: 1595
epoch: 1000
next table: 2062
cur table: 2064
epoch: 1000
next table: 1578
cur table: 1572
epoch: 1000
next table: 2068
cur table: 2062
epoch: 1000
next table: 1563
cur table: 1578
epoch: 1000
next table: 2058
cur table: 2068
epoch: 1000
next table: 1562
cur table: 1563
epoch: 1000
next table: 2068
cur table: 2058
epoch: 1000
next table: 1586
cur table: 1562
epoch: 1000
next table: 2055
cur table: 2068
epoch: 1000
next table: 1567
cur table: 1586
epoch: 1000
next table: 2061
cur table: 2055
epoch: 1000
next table: 1559
cur table: 1567
epoch: 1000
next table: 2067
cur table: 2061
epoch: 1000
next table: 1568
cur table: 1559
epoch: 1000
next table: 2067
cur table: 2067
epoch: 1000
next table: 1579
cur table: 1568
epoch: 1000
next table: 2052
cur table: 2067
epoch: 1000
next table: 2073
cur table: 2052
epoch: 1000
next table: 1583
cur table: 1579
epoch: 1000
next table: 1562
cur table: 1583
epoch: 1000
next table: 2060
cur table: 2073
epoch: 1000
next table: 1549
cur table: 1562
epoch: 1000
next table: 2066
cur table: 2060
epoch: 1000
next table: 1568
cur table: 1549
epoch: 1000
next table: 2062
cur table: 2066
epoch: 1000
next table: 1577
cur table: 1568
epoch: 1000
next table: 2063
cur table: 2062
epoch: 1000
next table: 1576
cur table: 1577
epoch: 1000
next table: 2067
cur table: 2063
epoch: 1000
next table: 2063
cur table: 2067
epoch: 1000
next table: 1581
cur table: 1576
epoch: 1000
next table: 2065
cur table: 2063
epoch: 1000
next table: 1571
cur table: 1581
epoch: 1000
next table: 2064
cur table: 2065
epoch: 1000
next table: 1580
cur table: 1571
epoch: 1000
next table: 2058
cur table: 2064
epoch: 1000
next table: 1581
cur table: 1580
epoch: 1000
next table: 2068
cur table: 2058
epoch: 1000
next table: 1556
cur table: 1581
epoch: 1000
next table: 2062
cur table: 2068
epoch: 1000
next table: 1548
cur table: 1556
epoch: 1000
next table: 2066
cur table: 2062
epoch: 1000
next table: 1559
cur table: 1548
epoch: 1000
next table: 2065
cur table: 2066
epoch: 1000
next table: 1583
cur table: 1559
epoch: 1000
next table: 2068
cur table: 2065
epoch: 1000
next table: 1575
cur table: 1583
epoch: 1000
next table: 2063
cur table: 2068
epoch: 1000
next table: 1574
cur table: 1575
epoch: 1000
next table: 2065
cur table: 2063
epoch: 1000
next table: 1561
cur table: 1574
epoch: 1000
next table: 2065
cur table: 2065
epoch: 1000
next table: 1588
cur table: 1561
epoch: 1000
next table: 2061
cur table: 2065
epoch: 1000
next table: 1549
cur table: 1588
epoch: 1000
next table: 2066
cur table: 2061
epoch: 1000
next table: 1572
cur table: 1549
epoch: 1000
next table: 2063
cur table: 2066
epoch: 1000
next table: 1578
cur table: 1572
epoch: 1000
next table: 2065
cur table: 2063
epoch: 1000
next table: 1577
cur table: 1578
epoch: 1000
next table: 2064
cur table: 2065
epoch: 1000
next table: 1573
cur table: 1577
epoch: 1000
next table: 2061
cur table: 2064
epoch: 1000
next table: 1566
cur table: 1573
epoch: 1000
next table: 2070
cur table: 2061
epoch: 1000
next table: 1570
cur table: 1566
epoch: 1000
next table: 2060
cur table: 2070
epoch: 1000
next table: 1564
cur table: 1570
epoch: 1000
next table: 2065
cur table: 2060
epoch: 1000
next table: 1602
cur table: 1564
epoch: 1000
next table: 2067
cur table: 2065
epoch: 1000
next table: 1595
cur table: 1602
epoch: 1000
next table: 2065
cur table: 2067
epoch: 1000
next table: 1575
cur table: 1595
epoch: 1000
next table: 2062
cur table: 2065
epoch: 1000
next table: 1593
cur table: 1575
epoch: 1000
next table: 2065
cur table: 2062
epoch: 1000
next table: 1595
cur table: 1593
epoch: 1000
next table: 2061
cur table: 2065
epoch: 1000
next table: 1564
cur table: 1595
epoch: 1000
next table: 2068
cur table: 2061
epoch: 1000
next table: 1587
cur table: 1564
epoch: 1000
next table: 2051
cur table: 2068
epoch: 1000
next table: 1566
cur table: 1587
epoch: 1000
next table: 2068
cur table: 2051
epoch: 1000
next table: 1573
cur table: 1566
epoch: 1000
next table: 2058
cur table: 2068
epoch: 1000
next table: 1563
cur table: 1573
epoch: 1000
next table: 2070
cur table: 2058
epoch: 1000
next table: 1566
cur table: 1563
epoch: 1000
next table: 2061
cur table: 2070
epoch: 1000
next table: 1600
cur table: 1566
epoch: 1000
next table: 2068
cur table: 2061
epoch: 1000
next table: 1564
cur table: 1600
epoch: 1000
next table: 2066
cur table: 2068
epoch: 1000
next table: 1583
cur table: 1564
epoch: 1000
next table: 2063
cur table: 2066
epoch: 1000
next table: 1573
cur table: 1583
epoch: 1000
next table: 2064
cur table: 2063
epoch: 1000
next table: 1578
cur table: 1573
epoch: 1000
next table: 2052
cur table: 2064
epoch: 1000
next table: 1571
cur table: 1578
epoch: 1000
next table: 2065
cur table: 2052
epoch: 1000
next table: 1570
cur table: 1571
epoch: 1000
next table: 2066
cur table: 2065
epoch: 1000
next table: 1576
cur table: 1570
epoch: 1000
next table: 2068
cur table: 2066
epoch: 1000
next table: 1560
cur table: 1576
epoch: 1000
next table: 2061
cur table: 2068
epoch: 1000
next table: 1559
cur table: 1560
epoch: 1000
next table: 2066
cur table: 2061
epoch: 1000
next table: 1561
cur table: 1559
epoch: 1000
next table: 2060
cur table: 2066
epoch: 1000
next table: 1556
cur table: 1561
epoch: 1000
next table: 2059
cur table: 2060
epoch: 1000
next table: 1574
cur table: 1556
epoch: 1000
next table: 2066
cur table: 2059
epoch: 1000
next table: 1565
cur table: 1574
epoch: 1000
next table: 2062
cur table: 2066
epoch: 1000
next table: 1581
cur table: 1565
epoch: 1000
next table: 2065
cur table: 2062
epoch: 1000
next table: 1558
cur table: 1581
epoch: 1000
next table: 2059
cur table: 2065
epoch: 1000
next table: 1578
cur table: 1558
epoch: 1000
next table: 2065
cur table: 2059
epoch: 1000
next table: 1585
cur table: 1578
epoch: 1000
next table: 2060
cur table: 2065
epoch: 1000
next table: 1564
cur table: 1585
epoch: 1000
next table: 2066
cur table: 2060
epoch: 1000
next table: 1556
cur table: 1564
epoch: 1000
next table: 2061
cur table: 2066
epoch: 1000
next table: 1547
cur table: 1556
epoch: 1000
next table: 2066
cur table: 2061
epoch: 1000
next table: 1590
cur table: 1547
epoch: 1000
next table: 2058
cur table: 2066
epoch: 1000
next table: 1592
cur table: 1590
epoch: 1000
next table: 2065
cur table: 2058
epoch: 1000
next table: 1585
cur table: 1592
epoch: 1000
next table: 2058
cur table: 2065
epoch: 1000
next table: 1570
cur table: 1585
epoch: 1000
next table: 2069
cur table: 2058
epoch: 1000
next table: 1569
cur table: 1570
epoch: 1000
next table: 2059
cur table: 2069
epoch: 1000
next table: 1562
cur table: 1569
epoch: 1000
next table: 2063
cur table: 2059
epoch: 1000
next table: 1580
cur table: 1562
epoch: 1000
next table: 2054
cur table: 2063
epoch: 1000
next table: 1582
cur table: 1580
epoch: 1000
next table: 2067
cur table: 2054
epoch: 1000
next table: 1550
cur table: 1582
epoch: 1000
next table: 2060
cur table: 2067
epoch: 1000
next table: 1604
cur table: 1550
epoch: 1000
next table: 2067
cur table: 2060
epoch: 1000
next table: 1576
cur table: 1604
epoch: 1000
next table: 2064
cur table: 2067
epoch: 1000
next table: 1580
cur table: 1576
epoch: 1000
next table: 2067
cur table: 2064
epoch: 1000
next table: 1581
cur table: 1580
epoch: 1000
next table: 2054
cur table: 2067
epoch: 1000
next table: 1594
cur table: 1581
epoch: 1000
next table: 2071
cur table: 2054
epoch: 1000
next table: 1602
cur table: 1594
epoch: 1000
next table: 2064
cur table: 2071
epoch: 1000
next table: 1581
cur table: 1602
epoch: 1000
next table: 2072
cur table: 2064
epoch: 1000
next table: 1604
cur table: 1581
epoch: 1000
next table: 2058
cur table: 2072
epoch: 1000
next table: 1552
cur table: 1604
epoch: 1000
next table: 2064
cur table: 2058
epoch: 1000
next table: 1596
cur table: 1552
epoch: 1000
next table: 2065
cur table: 2064
epoch: 1000
next table: 1590
cur table: 1596
epoch: 1000
next table: 2063
cur table: 2065
epoch: 1000
next table: 1566
cur table: 1590
epoch: 1000
next table: 2059
cur table: 2063
epoch: 1000
next table: 1597
cur table: 1566
epoch: 1000
next table: 2063
cur table: 2059
epoch: 1000
next table: 1543
cur table: 1597
epoch: 1000
next table: 2061
cur table: 2063
epoch: 1000
next table: 1601
cur table: 1543
epoch: 1000
next table: 2062
cur table: 2061
epoch: 1000
next table: 1561
cur table: 1601
epoch: 1000
next table: 2065
cur table: 2062
epoch: 1000
next table: 1582
cur table: 1561
epoch: 1000
next table: 2062
cur table: 2065
epoch: 1000
next table: 1583
cur table: 1582
epoch: 1000
next table: 2059
cur table: 2062
epoch: 1000
next table: 1581
cur table: 1583
epoch: 1000
next table: 2062
cur table: 2059
epoch: 1000
next table: 1589
cur table: 1581
epoch: 1000
next table: 2064
cur table: 2062
epoch: 1000
next table: 1566
cur table: 1589
epoch: 1000
next table: 2062
cur table: 2064
epoch: 1000
next table: 1566
cur table: 1566
epoch: 1000
next table: 2065
cur table: 2062
epoch: 1000
next table: 1563
cur table: 1566
epoch: 1000
next table: 2064
cur table: 2065
epoch: 1000
next table: 1556
cur table: 1563
epoch: 1000
next table: 2060
cur table: 2064
epoch: 1000
next table: 1587
cur table: 1556
epoch: 1000
next table: 2071
cur table: 2060
epoch: 1000
next table: 1569
cur table: 1587
epoch: 1000
next table: 2062
cur table: 2071
epoch: 1000
next table: 1582
cur table: 1569
epoch: 1000
next table: 2062
cur table: 2062
epoch: 1000
next table: 1576
cur table: 1582
epoch: 1000
next table: 2061
cur table: 2062
epoch: 1000
next table: 1605
cur table: 1576
epoch: 1000
next table: 2067
cur table: 2061
epoch: 1000
next table: 1569
cur table: 1605
epoch: 1000
next table: 2059
cur table: 2067
epoch: 1000
next table: 1567
cur table: 1569
epoch: 1000
next table: 2070
cur table: 2059
epoch: 1000
next table: 1561
cur table: 1567
epoch: 1000
next table: 2057
cur table: 2070
epoch: 1000
next table: 1600
cur table: 1561
epoch: 1000
next table: 2061
cur table: 2057
epoch: 1000
next table: 1573
cur table: 1600
epoch: 1000
next table: 2062
cur table: 2061
epoch: 1000
next table: 1578
cur table: 1573
epoch: 1000
next table: 2066
cur table: 2062
epoch: 1000
next table: 1577
cur table: 1578
epoch: 1000
next table: 2061
cur table: 2066
epoch: 1000
next table: 1572
cur table: 1577
epoch: 1000
next table: 2060
cur table: 2061
epoch: 1000
next table: 1617
cur table: 1572
epoch: 1000
next table: 2062
cur table: 2060
epoch: 1000
next table: 1583
cur table: 1617
epoch: 1000
next table: 2067
cur table: 2062
epoch: 1000
next table: 1554
cur table: 1583
epoch: 1000
next table: 2061
cur table: 2067
epoch: 1000
next table: 1582
cur table: 1554
epoch: 1000
next table: 2062
cur table: 2061
epoch: 1000
next table: 1577
cur table: 1582
epoch: 1000
next table: 2062
cur table: 2062
epoch: 1000
next table: 1564
cur table: 1577
epoch: 1000
next table: 2063
cur table: 2062
epoch: 1000
next table: 1574
cur table: 1564
epoch: 1000
next table: 2060
cur table: 2063
epoch: 1000
next table: 1550
cur table: 1574
epoch: 1000
next table: 2065
cur table: 2060
epoch: 1000
next table: 1561
cur table: 1550
epoch: 1000
next table: 2061
cur table: 2065
epoch: 1000
next table: 1582
cur table: 1561
epoch: 1000
next table: 2071
cur table: 2061
epoch: 1000
next table: 1579
cur table: 1582
epoch: 1000
next table: 2059
cur table: 2071
epoch: 1000
next table: 1582
cur table: 1579
epoch: 1000
next table: 2064
cur table: 2059
epoch: 1000
next table: 1589
cur table: 1582
epoch: 1000
next table: 2062
cur table: 2064
epoch: 1000
next table: 1567
cur table: 1589
epoch: 1000
next table: 2066
cur table: 2062
epoch: 1000
next table: 1578
cur table: 1567
epoch: 1000
next table: 2065
cur table: 2066
epoch: 1000
next table: 1591
cur table: 1578
epoch: 1000
next table: 2065
cur table: 2065
epoch: 1000
next table: 1569
cur table: 1591
epoch: 1000
next table: 2059
cur table: 2065
epoch: 1000
next table: 1564
cur table: 1569
epoch: 1000
next table: 2069
cur table: 2059
epoch: 1000
next table: 1586
cur table: 1564
epoch: 1000
next table: 2065
cur table: 2069
epoch: 1000
next table: 1578
cur table: 1586
epoch: 1000
next table: 2066
cur table: 2065
epoch: 1000
next table: 1568
cur table: 1578
epoch: 1000
next table: 2052
cur table: 2066
epoch: 1000
next table: 1572
cur table: 1568
epoch: 1000
next table: 2064
cur table: 2052
epoch: 1000
next table: 1571
cur table: 1572
epoch: 1000
next table: 2065
cur table: 2064
epoch: 1000
next table: 1588
cur table: 1571
epoch: 1000
next table: 2062
cur table: 2065
epoch: 1000
next table: 1573
cur table: 1588
epoch: 1000
next table: 2064
cur table: 2062
epoch: 1000
next table: 1567
cur table: 1573
epoch: 1000
next table: 2064
cur table: 2064
epoch: 1000
next table: 1582
cur table: 1567
epoch: 1000
next table: 2060
cur table: 2064
epoch: 1000
next table: 1570
cur table: 1582
epoch: 1000
next table: 2066
cur table: 2060
epoch: 1000
next table: 1582
cur table: 1570
epoch: 1000
next table: 2056
cur table: 2066
epoch: 1000
next table: 1558
cur table: 1582
epoch: 1000
next table: 2066
cur table: 2056
epoch: 1000
next table: 1554
cur table: 1558
epoch: 1000
next table: 2058
cur table: 2066
epoch: 1000
next table: 1589
cur table: 1554
epoch: 1000
next table: 2051
cur table: 2058
epoch: 1000
next table: 1597
cur table: 1589
epoch: 1000
next table: 2058
cur table: 2051
epoch: 1000
next table: 1569
cur table: 1597
epoch: 1000
next table: 2057
cur table: 2058
epoch: 1000
next table: 1573
cur table: 1569
epoch: 1000
next table: 2059
cur table: 2057
epoch: 1000
next table: 1563
cur table: 1573
Heartbeat CPU 0 instructions: 20000002 cycles: 6626780 heartbeat IPC: 3.01828 cumulative IPC: 3.01806 (Simulation time: 0 hr 5 min 2 sec) 
epoch: 1000
next table: 2069
cur table: 2059
epoch: 1000
next table: 1590
cur table: 1563
epoch: 1000
next table: 2060
cur table: 2069
epoch: 1000
next table: 1587
cur table: 1590
epoch: 1000
next table: 2066
cur table: 2060
epoch: 1000
next table: 1588
cur table: 1587
epoch: 1000
next table: 2068
cur table: 2066
epoch: 1000
next table: 1558
cur table: 1588
epoch: 1000
next table: 2056
cur table: 2068
epoch: 1000
next table: 1573
cur table: 1558
epoch: 1000
next table: 2060
cur table: 2056
epoch: 1000
next table: 1577
cur table: 1573
epoch: 1000
next table: 2070
cur table: 2060
epoch: 1000
next table: 1600
cur table: 1577
epoch: 1000
next table: 2062
cur table: 2070
epoch: 1000
next table: 1552
cur table: 1600
epoch: 1000
next table: 2071
cur table: 2062
epoch: 1000
next table: 1558
cur table: 1552
epoch: 1000
next table: 2061
cur table: 2071
epoch: 1000
next table: 1574
cur table: 1558
epoch: 1000
next table: 2066
cur table: 2061
epoch: 1000
next table: 1592
cur table: 1574
epoch: 1000
next table: 2062
cur table: 2066
epoch: 1000
next table: 1588
cur table: 1592
epoch: 1000
next table: 2070
cur table: 2062
epoch: 1000
next table: 1595
cur table: 1588
epoch: 1000
next table: 2063
cur table: 2070
epoch: 1000
next table: 1585
cur table: 1595
epoch: 1000
next table: 2065
cur table: 2063
epoch: 1000
next table: 1597
cur table: 1585
epoch: 1000
next table: 2065
cur table: 2065
epoch: 1000
next table: 1588
cur table: 1597
epoch: 1000
next table: 2066
cur table: 2065
epoch: 1000
next table: 1591
cur table: 1588
epoch: 1000
next table: 2058
cur table: 2066
epoch: 1000
next table: 1593
cur table: 1591
epoch: 1000
next table: 2058
cur table: 2058
epoch: 1000
next table: 1596
cur table: 1593
epoch: 1000
next table: 2066
cur table: 2058
epoch: 1000
next table: 1588
cur table: 1596
epoch: 1000
next table: 2060
cur table: 2066
epoch: 1000
next table: 1587
cur table: 1588
epoch: 1000
next table: 2069
cur table: 2060
epoch: 1000
next table: 1598
cur table: 1587
epoch: 1000
next table: 2061
cur table: 2069
epoch: 1000
next table: 1551
cur table: 1598
epoch: 1000
next table: 2064
cur table: 2061
epoch: 1000
next table: 1564
cur table: 1551
epoch: 1000
next table: 2068
cur table: 2064
epoch: 1000
next table: 1565
cur table: 1564
epoch: 1000
next table: 2063
cur table: 2068
epoch: 1000
next table: 1577
cur table: 1565
epoch: 1000
next table: 2064
cur table: 2063
epoch: 1000
next table: 1576
cur table: 1577
epoch: 1000
next table: 2066
cur table: 2064
epoch: 1000
next table: 1560
cur table: 1576
epoch: 1000
next table: 2064
cur table: 2066
epoch: 1000
next table: 1607
cur table: 1560
epoch: 1000
next table: 2060
cur table: 2064
epoch: 1000
next table: 1578
cur table: 1607
epoch: 1000
next table: 2058
cur table: 2060
epoch: 1000
next table: 1577
cur table: 1578
epoch: 1000
next table: 2048
cur table: 2058
epoch: 1000
next table: 1581
cur table: 1577
epoch: 1000
next table: 2064
cur table: 2048
epoch: 1000
next table: 1569
cur table: 1581
epoch: 1000
next table: 2061
cur table: 2064
epoch: 1000
next table: 1579
cur table: 1569
epoch: 1000
next table: 2060
cur table: 2061
epoch: 1000
next table: 1589
cur table: 1579
epoch: 1000
next table: 2072
cur table: 2060
epoch: 1000
next table: 1597
cur table: 1589
epoch: 1000
next table: 2054
cur table: 2072
epoch: 1000
next table: 1569
cur table: 1597
epoch: 1000
next table: 2071
cur table: 2054
epoch: 1000
next table: 1606
cur table: 1569
epoch: 1000
next table: 2061
cur table: 2071
epoch: 1000
next table: 1588
cur table: 1606
epoch: 1000
next table: 2066
cur table: 2061
epoch: 1000
next table: 1587
cur table: 1588
epoch: 1000
next table: 2059
cur table: 2066
epoch: 1000
next table: 1551
cur table: 1587
epoch: 1000
next table: 2062
cur table: 2059
epoch: 1000
next table: 1586
cur table: 1551
epoch: 1000
next table: 2070
cur table: 2062
epoch: 1000
next table: 1600
cur table: 1586
epoch: 1000
next table: 2064
cur table: 2070
epoch: 1000
next table: 1577
cur table: 1600
epoch: 1000
next table: 2061
cur table: 2064
epoch: 1000
next table: 1576
cur table: 1577
epoch: 1000
next table: 2071
cur table: 2061
epoch: 1000
next table: 1574
cur table: 1576
epoch: 1000
next table: 2055
cur table: 2071
epoch: 1000
next table: 1581
cur table: 1574
epoch: 1000
next table: 2065
cur table: 2055
epoch: 1000
next table: 1561
cur table: 1581
epoch: 1000
next table: 2064
cur table: 2065
epoch: 1000
next table: 1575
cur table: 1561
epoch: 1000
next table: 2061
cur table: 2064
epoch: 1000
next table: 1591
cur table: 1575
epoch: 1000
next table: 2056
cur table: 2061
epoch: 1000
next table: 1581
cur table: 1591
epoch: 1000
next table: 2065
cur table: 2056
epoch: 1000
next table: 1593
cur table: 1581
epoch: 1000
next table: 2059
cur table: 2065
epoch: 1000
next table: 1556
cur table: 1593
epoch: 1000
next table: 2070
cur table: 2059
epoch: 1000
next table: 1574
cur table: 1556
epoch: 1000
next table: 2060
cur table: 2070
epoch: 1000
next table: 1558
cur table: 1574
epoch: 1000
next table: 2073
cur table: 2060
epoch: 1000
next table: 1576
cur table: 1558
epoch: 1000
next table: 2058
cur table: 2073
epoch: 1000
next table: 1600
cur table: 1576
epoch: 1000
next table: 2069
cur table: 2058
epoch: 1000
next table: 1587
cur table: 1600
epoch: 1000
next table: 2057
cur table: 2069
epoch: 1000
next table: 1596
cur table: 1587
epoch: 1000
next table: 2063
cur table: 2057
epoch: 1000
next table: 1556
cur table: 1596
epoch: 1000
next table: 2068
cur table: 2063
epoch: 1000
next table: 1572
cur table: 1556
epoch: 1000
next table: 2069
cur table: 2068
epoch: 1000
next table: 1568
cur table: 1572
epoch: 1000
next table: 2054
cur table: 2069
epoch: 1000
next table: 1575
cur table: 1568
epoch: 1000
next table: 2070
cur table: 2054
epoch: 1000
next table: 1580
cur table: 1575
epoch: 1000
next table: 2065
cur table: 2070
epoch: 1000
next table: 1573
cur table: 1580
epoch: 1000
next table: 2064
cur table: 2065
epoch: 1000
next table: 1592
cur table: 1573
epoch: 1000
next table: 2066
cur table: 2064
epoch: 1000
next table: 1576
cur table: 1592
epoch: 1000
next table: 2059
cur table: 2066
epoch: 1000
next table: 1586
cur table: 1576
epoch: 1000
next table: 2065
cur table: 2059
epoch: 1000
next table: 1547
cur table: 1586
epoch: 1000
next table: 2064
cur table: 2065
epoch: 1000
next table: 1574
cur table: 1547
epoch: 1000
next table: 2061
cur table: 2064
epoch: 1000
next table: 1598
cur table: 1574
epoch: 1000
next table: 2055
cur table: 2061
epoch: 1000
next table: 1560
cur table: 1598
epoch: 1000
next table: 2062
cur table: 2055
epoch: 1000
next table: 1585
cur table: 1560
epoch: 1000
next table: 2064
cur table: 2062
epoch: 1000
next table: 1555
cur table: 1585
epoch: 1000
next table: 2048
cur table: 2064
epoch: 1000
next table: 1562
cur table: 1555
epoch: 1000
next table: 2062
cur table: 2048
epoch: 1000
next table: 1572
cur table: 1562
epoch: 1000
next table: 2063
cur table: 2062
epoch: 1000
next table: 1572
cur table: 1572
epoch: 1000
next table: 2065
cur table: 2063
epoch: 1000
next table: 1582
cur table: 1572
epoch: 1000
next table: 2057
cur table: 2065
epoch: 1000
next table: 1575
cur table: 1582
epoch: 1000
next table: 2066
cur table: 2057
epoch: 1000
next table: 1613
cur table: 1575
epoch: 1000
next table: 2065
cur table: 2066
epoch: 1000
next table: 1577
cur table: 1613
epoch: 1000
next table: 2066
cur table: 2065
epoch: 1000
next table: 1578
cur table: 1577
epoch: 1000
next table: 2059
cur table: 2066
epoch: 1000
next table: 1606
cur table: 1578
epoch: 1000
next table: 2073
cur table: 2059
epoch: 1000
next table: 1564
cur table: 1606
epoch: 1000
next table: 2059
cur table: 2073
epoch: 1000
next table: 1546
cur table: 1564
epoch: 1000
next table: 2066
cur table: 2059
epoch: 1000
next table: 1549
cur table: 1546
epoch: 1000
next table: 2058
cur table: 2066
epoch: 1000
next table: 1573
cur table: 1549
epoch: 1000
next table: 2064
cur table: 2058
epoch: 1000
next table: 1592
cur table: 1573
epoch: 1000
next table: 2058
cur table: 2064
epoch: 1000
next table: 1574
cur table: 1592
epoch: 1000
next table: 2060
cur table: 2058
epoch: 1000
next table: 1593
cur table: 1574
epoch: 1000
next table: 2068
cur table: 2060
epoch: 1000
next table: 1580
cur table: 1593
epoch: 1000
next table: 2059
cur table: 2068
epoch: 1000
next table: 1576
cur table: 1580
epoch: 1000
next table: 2063
cur table: 2059
epoch: 1000
next table: 1567
cur table: 1576
epoch: 1000
next table: 2067
cur table: 2063
epoch: 1000
next table: 1606
cur table: 1567
epoch: 1000
next table: 2060
cur table: 2067
epoch: 1000
next table: 1569
cur table: 1606
epoch: 1000
next table: 2063
cur table: 2060
epoch: 1000
next table: 1573
cur table: 1569
epoch: 1000
next table: 2063
cur table: 2063
epoch: 1000
next table: 1596
cur table: 1573
epoch: 1000
next table: 2064
cur table: 2063
epoch: 1000
next table: 1585
cur table: 1596
epoch: 1000
next table: 2056
cur table: 2064
epoch: 1000
next table: 1593
cur table: 1585
epoch: 1000
next table: 2060
cur table: 2056
epoch: 1000
next table: 1566
cur table: 1593
epoch: 1000
next table: 2063
cur table: 2060
epoch: 1000
next table: 1583
cur table: 1566
epoch: 1000
next table: 2069
cur table: 2063
epoch: 1000
next table: 1574
cur table: 1583
epoch: 1000
next table: 2061
cur table: 2069
epoch: 1000
next table: 1594
cur table: 1574
epoch: 1000
next table: 2069
cur table: 2061
epoch: 1000
next table: 1593
cur table: 1594
epoch: 1000
next table: 2062
cur table: 2069
epoch: 1000
next table: 1560
cur table: 1593
epoch: 1000
next table: 2068
cur table: 2062
epoch: 1000
next table: 1581
cur table: 1560
epoch: 1000
next table: 2063
cur table: 2068
epoch: 1000
next table: 1574
cur table: 1581
epoch: 1000
next table: 2069
cur table: 2063
epoch: 1000
next table: 1585
cur table: 1574
epoch: 1000
next table: 2059
cur table: 2069
epoch: 1000
next table: 1567
cur table: 1585
epoch: 1000
next table: 2056
cur table: 2059
epoch: 1000
next table: 1556
cur table: 1567
epoch: 1000
next table: 2064
cur table: 2056
epoch: 1000
next table: 1566
cur table: 1556
epoch: 1000
next table: 2060
cur table: 2064
epoch: 1000
next table: 1584
cur table: 1566
epoch: 1000
next table: 2064
cur table: 2060
epoch: 1000
next table: 1585
cur table: 1584
epoch: 1000
next table: 2065
cur table: 2064
epoch: 1000
next table: 1561
cur table: 1585
epoch: 1000
next table: 2055
cur table: 2065
epoch: 1000
next table: 1565
cur table: 1561
epoch: 1000
next table: 2073
cur table: 2055
epoch: 1000
next table: 1615
cur table: 1565
epoch: 1000
next table: 2058
cur table: 2073
epoch: 1000
next table: 1581
cur table: 1615
epoch: 1000
next table: 2069
cur table: 2058
epoch: 1000
next table: 1566
cur table: 1581
epoch: 1000
next table: 2059
cur table: 2069
epoch: 1000
next table: 1547
cur table: 1566
epoch: 1000
next table: 2066
cur table: 2059
epoch: 1000
next table: 1568
cur table: 1547
epoch: 1000
next table: 2061
cur table: 2066
epoch: 1000
next table: 1584
cur table: 1568
epoch: 1000
next table: 2061
cur table: 2061
epoch: 1000
next table: 1583
cur table: 1584
epoch: 1000
next table: 2068
cur table: 2061
epoch: 1000
next table: 1592
cur table: 1583
epoch: 1000
next table: 2059
cur table: 2068
epoch: 1000
next table: 1575
cur table: 1592
epoch: 1000
next table: 2065
cur table: 2059
epoch: 1000
next table: 1574
cur table: 1575
epoch: 1000
next table: 2065
cur table: 2065
epoch: 1000
next table: 1583
cur table: 1574
epoch: 1000
next table: 2053
cur table: 2065
epoch: 1000
next table: 1545
cur table: 1583
epoch: 1000
next table: 2074
cur table: 2053
epoch: 1000
next table: 1586
cur table: 1545
epoch: 1000
next table: 2061
cur table: 2074
epoch: 1000
next table: 1564
cur table: 1586
epoch: 1000
next table: 2060
cur table: 2061
epoch: 1000
next table: 1593
cur table: 1564
epoch: 1000
next table: 2061
cur table: 2060
epoch: 1000
next table: 1566
cur table: 1593
epoch: 1000
next table: 2055
cur table: 2061
epoch: 1000
next table: 1572
cur table: 1566
epoch: 1000
next table: 2041
cur table: 2055
epoch: 1000
next table: 1569
cur table: 1572
epoch: 1000
next table: 2069
cur table: 2041
epoch: 1000
next table: 1572
cur table: 1569
epoch: 1000
next table: 2060
cur table: 2069
epoch: 1000
next table: 1600
cur table: 1572
epoch: 1000
next table: 2072
cur table: 2060
epoch: 1000
next table: 1577
cur table: 1600
epoch: 1000
next table: 2053
cur table: 2072
epoch: 1000
next table: 1582
cur table: 1577
epoch: 1000
next table: 2067
cur table: 2053
epoch: 1000
next table: 1578
cur table: 1582
epoch: 1000
next table: 2059
cur table: 2067
epoch: 1000
next table: 1570
cur table: 1578
epoch: 1000
next table: 2065
cur table: 2059
epoch: 1000
next table: 1608
cur table: 1570
epoch: 1000
next table: 2065
cur table: 2065
epoch: 1000
next table: 1581
cur table: 1608
epoch: 1000
next table: 2060
cur table: 2065
epoch: 1000
next table: 1579
cur table: 1581
epoch: 1000
next table: 2063
cur table: 2060
epoch: 1000
next table: 1561
cur table: 1579
epoch: 1000
next table: 2062
cur table: 2063
epoch: 1000
next table: 1582
cur table: 1561
epoch: 1000
next table: 2054
cur table: 2062
epoch: 1000
next table: 1576
cur table: 1582
epoch: 1000
next table: 2062
cur table: 2054
epoch: 1000
next table: 1587
cur table: 1576
epoch: 1000
next table: 2062
cur table: 2062
epoch: 1000
next table: 1582
cur table: 1587
epoch: 1000
next table: 2066
cur table: 2062
epoch: 1000
next table: 1578
cur table: 1582
epoch: 1000
next table: 2060
cur table: 2066
epoch: 1000
next table: 1584
cur table: 1578
epoch: 1000
next table: 2065
cur table: 2060
epoch: 1000
next table: 1572
cur table: 1584
epoch: 1000
next table: 2065
cur table: 2065
epoch: 1000
next table: 1569
cur table: 1572
epoch: 1000
next table: 2066
cur table: 2065
epoch: 1000
next table: 1585
cur table: 1569
epoch: 1000
next table: 2056
cur table: 2066
epoch: 1000
next table: 1583
cur table: 1585
epoch: 1000
next table: 2065
cur table: 2056
epoch: 1000
next table: 1559
cur table: 1583
epoch: 1000
next table: 2059
cur table: 2065
epoch: 1000
next table: 1547
cur table: 1559
epoch: 1000
next table: 2069
cur table: 2059
epoch: 1000
next table: 1547
cur table: 1547
epoch: 1000
next table: 2062
cur table: 2069
epoch: 1000
next table: 1567
cur table: 1547
epoch: 1000
next table: 2060
cur table: 2062
epoch: 1000
next table: 1612
cur table: 1567
epoch: 1000
next table: 2057
cur table: 2060
epoch: 1000
next table: 1586
cur table: 1612
epoch: 1000
next table: 2066
cur table: 2057
epoch: 1000
next table: 1591
cur table: 1586
epoch: 1000
next table: 2059
cur table: 2066
epoch: 1000
next table: 1557
cur table: 1591
epoch: 1000
next table: 2064
cur table: 2059
epoch: 1000
next table: 1564
cur table: 1557
epoch: 1000
next table: 2059
cur table: 2064
epoch: 1000
next table: 1585
cur table: 1564
epoch: 1000
next table: 2066
cur table: 2059
epoch: 1000
next table: 1548
cur table: 1585
epoch: 1000
next table: 2057
cur table: 2066
epoch: 1000
next table: 1552
cur table: 1548
epoch: 1000
next table: 2071
cur table: 2057
epoch: 1000
next table: 1561
cur table: 1552
epoch: 1000
next table: 2052
cur table: 2071
epoch: 1000
next table: 1579
cur table: 1561
epoch: 1000
next table: 2069
cur table: 2052
epoch: 1000
next table: 1580
cur table: 1579
epoch: 1000
next table: 2058
cur table: 2069
epoch: 1000
next table: 1577
cur table: 1580
epoch: 1000
next table: 2057
cur table: 2058
epoch: 1000
next table: 1571
cur table: 1577
epoch: 1000
next table: 2058
cur table: 2057
epoch: 1000
next table: 1554
cur table: 1571
epoch: 1000
next table: 2066
cur table: 2058
epoch: 1000
next table: 1581
cur table: 1554
epoch: 1000
next table: 2061
cur table: 2066
epoch: 1000
next table: 1568
cur table: 1581
epoch: 1000
next table: 2066
cur table: 2061
epoch: 1000
next table: 1586
cur table: 1568
epoch: 1000
next table: 2060
cur table: 2066
epoch: 1000
next table: 1603
cur table: 1586
epoch: 1000
next table: 2063
cur table: 2060
epoch: 1000
next table: 1559
cur table: 1603
epoch: 1000
next table: 2060
cur table: 2063
epoch: 1000
next table: 1590
cur table: 1559
epoch: 1000
next table: 2060
cur table: 2060
epoch: 1000
next table: 1568
cur table: 1590
epoch: 1000
next table: 2054
cur table: 2060
epoch: 1000
next table: 1593
cur table: 1568
epoch: 1000
next table: 2056
cur table: 2054
epoch: 1000
next table: 1585
cur table: 1593
epoch: 1000
next table: 2058
cur table: 2056
epoch: 1000
next table: 1579
cur table: 1585
epoch: 1000
next table: 2062
cur table: 2058
epoch: 1000
next table: 1578
cur table: 1579
epoch: 1000
next table: 2055
cur table: 2062
epoch: 1000
next table: 1574
cur table: 1578
epoch: 1000
next table: 2071
cur table: 2055
epoch: 1000
next table: 1595
cur table: 1574
epoch: 1000
next table: 2051
cur table: 2071
epoch: 1000
next table: 1571
cur table: 1595
epoch: 1000
next table: 2071
cur table: 2051
epoch: 1000
next table: 1611
cur table: 1571
epoch: 1000
next table: 2055
cur table: 2071
epoch: 1000
next table: 1566
cur table: 1611
epoch: 1000
next table: 2070
cur table: 2055
epoch: 1000
next table: 1597
cur table: 1566
epoch: 1000
next table: 2061
cur table: 2070
epoch: 1000
next table: 1571
cur table: 1597
epoch: 1000
next table: 2065
cur table: 2061
epoch: 1000
next table: 1593
cur table: 1571
epoch: 1000
next table: 2061
cur table: 2065
Heartbeat CPU 0 instructions: 30000003 cycles: 9940377 heartbeat IPC: 3.01787 cumulative IPC: 3.01799 (Simulation time: 0 hr 7 min 50 sec) 
epoch: 1000
next table: 1583
cur table: 1593
epoch: 1000
next table: 2061
cur table: 2061
epoch: 1000
next table: 1582
cur table: 1583
epoch: 1000
next table: 2057
cur table: 2061
epoch: 1000
next table: 1581
cur table: 1582
epoch: 1000
next table: 2071
cur table: 2057
epoch: 1000
next table: 1570
cur table: 1581
epoch: 1000
next table: 2059
cur table: 2071
epoch: 1000
next table: 1581
cur table: 1570
epoch: 1000
next table: 2064
cur table: 2059
epoch: 1000
next table: 1554
cur table: 1581
epoch: 1000
next table: 2062
cur table: 2064
epoch: 1000
next table: 1553
cur table: 1554
epoch: 1000
next table: 2060
cur table: 2062
epoch: 1000
next table: 1566
cur table: 1553
epoch: 1000
next table: 2061
cur table: 2060
epoch: 1000
next table: 1577
cur table: 1566
epoch: 1000
next table: 2064
cur table: 2061
epoch: 1000
next table: 1585
cur table: 1577
epoch: 1000
next table: 2062
cur table: 2064
epoch: 1000
next table: 1598
cur table: 1585
epoch: 1000
next table: 2069
cur table: 2062
epoch: 1000
next table: 1568
cur table: 1598
epoch: 1000
next table: 2055
cur table: 2069
epoch: 1000
next table: 1579
cur table: 1568
epoch: 1000
next table: 2069
cur table: 2055
epoch: 1000
next table: 1572
cur table: 1579
epoch: 1000
next table: 2062
cur table: 2069
epoch: 1000
next table: 1593
cur table: 1572
epoch: 1000
next table: 2070
cur table: 2062
epoch: 1000
next table: 1567
cur table: 1593
epoch: 1000
next table: 2061
cur table: 2070
epoch: 1000
next table: 1567
cur table: 1567
epoch: 1000
next table: 2067
cur table: 2061
epoch: 1000
next table: 1560
cur table: 1567
epoch: 1000
next table: 2063
cur table: 2067
epoch: 1000
next table: 1568
cur table: 1560
epoch: 1000
next table: 2057
cur table: 2063
epoch: 1000
next table: 1589
cur table: 1568
epoch: 1000
next table: 2054
cur table: 2057
epoch: 1000
next table: 1561
cur table: 1589
epoch: 1000
next table: 2059
cur table: 2054
epoch: 1000
next table: 1576
cur table: 1561
epoch: 1000
next table: 2058
cur table: 2059
epoch: 1000
next table: 1589
cur table: 1576
epoch: 1000
next table: 2070
cur table: 2058
epoch: 1000
next table: 1574
cur table: 1589
epoch: 1000
next table: 2061
cur table: 2070
epoch: 1000
next table: 1581
cur table: 1574
epoch: 1000
next table: 2067
cur table: 2061
epoch: 1000
next table: 1557
cur table: 1581
epoch: 1000
next table: 2061
cur table: 2067
epoch: 1000
next table: 1594
cur table: 1557
epoch: 1000
next table: 2063
cur table: 2061
epoch: 1000
next table: 1611
cur table: 1594
epoch: 1000
next table: 2064
cur table: 2063
epoch: 1000
next table: 1593
cur table: 1611
epoch: 1000
next table: 2055
cur table: 2064
epoch: 1000
next table: 1594
cur table: 1593
epoch: 1000
next table: 2061
cur table: 2055
epoch: 1000
next table: 1573
cur table: 1594
epoch: 1000
next table: 2064
cur table: 2061
epoch: 1000
next table: 1589
cur table: 1573
epoch: 1000
next table: 2063
cur table: 2064
epoch: 1000
next table: 1575
cur table: 1589
epoch: 1000
next table: 2069
cur table: 2063
epoch: 1000
next table: 1572
cur table: 1575
epoch: 1000
next table: 2059
cur table: 2069
epoch: 1000
next table: 1551
cur table: 1572
epoch: 1000
next table: 2067
cur table: 2059
epoch: 1000
next table: 1573
cur table: 1551
epoch: 1000
next table: 2067
cur table: 2067
epoch: 1000
next table: 1581
cur table: 1573
epoch: 1000
next table: 2056
cur table: 2067
epoch: 1000
next table: 1604
cur table: 1581
epoch: 1000
next table: 2067
cur table: 2056
epoch: 1000
next table: 1587
cur table: 1604
epoch: 1000
next table: 2058
cur table: 2067
epoch: 1000
next table: 1558
cur table: 1587
epoch: 1000
next table: 2068
cur table: 2058
epoch: 1000
next table: 1574
cur table: 1558
epoch: 1000
next table: 2061
cur table: 2068
epoch: 1000
next table: 1576
cur table: 1574
epoch: 1000
next table: 2063
cur table: 2061
epoch: 1000
next table: 1582
cur table: 1576
epoch: 1000
next table: 2071
cur table: 2063
epoch: 1000
next table: 1578
cur table: 1582
epoch: 1000
next table: 2057
cur table: 2071
epoch: 1000
next table: 1587
cur table: 1578
epoch: 1000
next table: 2065
cur table: 2057
epoch: 1000
next table: 1581
cur table: 1587
epoch: 1000
next table: 2062
cur table: 2065
epoch: 1000
next table: 1580
cur table: 1581
epoch: 1000
next table: 2066
cur table: 2062
epoch: 1000
next table: 1570
cur table: 1580
epoch: 1000
next table: 2069
cur table: 2066
epoch: 1000
next table: 1565
cur table: 1570
epoch: 1000
next table: 2063
cur table: 2069
epoch: 1000
next table: 1596
cur table: 1565
epoch: 1000
next table: 2062
cur table: 2063
epoch: 1000
next table: 1566
cur table: 1596
epoch: 1000
next table: 2069
cur table: 2062
epoch: 1000
next table: 1569
cur table: 1566
epoch: 1000
next table: 2060
cur table: 2069
epoch: 1000
next table: 1570
cur table: 1569
epoch: 1000
next table: 2061
cur table: 2060
epoch: 1000
next table: 1574
cur table: 1570
epoch: 1000
next table: 2062
cur table: 2061
epoch: 1000
next table: 1589
cur table: 1574
epoch: 1000
next table: 2065
cur table: 2062
epoch: 1000
next table: 1583
cur table: 1589
epoch: 1000
next table: 2067
cur table: 2065
epoch: 1000
next table: 1573
cur table: 1583
epoch: 1000
next table: 2061
cur table: 2067
epoch: 1000
next table: 1573
cur table: 1573
epoch: 1000
next table: 2065
cur table: 2061
epoch: 1000
next table: 1565
cur table: 1573
epoch: 1000
next table: 2059
cur table: 2065
epoch: 1000
next table: 1592
cur table: 1565
epoch: 1000
next table: 2069
cur table: 2059
epoch: 1000
next table: 1569
cur table: 1592
epoch: 1000
next table: 2063
cur table: 2069
epoch: 1000
next table: 1590
cur table: 1569
epoch: 1000
next table: 2063
cur table: 2063
epoch: 1000
next table: 1567
cur table: 1590
epoch: 1000
next table: 2064
cur table: 2063
epoch: 1000
next table: 1582
cur table: 1567
epoch: 1000
next table: 2064
cur table: 2064
epoch: 1000
next table: 1602
cur table: 1582
epoch: 1000
next table: 2057
cur table: 2064
epoch: 1000
next table: 1562
cur table: 1602
epoch: 1000
next table: 2064
cur table: 2057
epoch: 1000
next table: 1583
cur table: 1562
epoch: 1000
next table: 2067
cur table: 2064
epoch: 1000
next table: 1571
cur table: 1583
epoch: 1000
next table: 2060
cur table: 2067
epoch: 1000
next table: 1572
cur table: 1571
epoch: 1000
next table: 2070
cur table: 2060
epoch: 1000
next table: 1567
cur table: 1572
epoch: 1000
next table: 2066
cur table: 2070
epoch: 1000
next table: 2058
cur table: 2066
epoch: 1000
next table: 1574
cur table: 1567
epoch: 1000
next table: 2058
cur table: 2058
epoch: 1000
next table: 1588
cur table: 1574
epoch: 1000
next table: 2062
cur table: 2058
epoch: 1000
next table: 1579
cur table: 1588
epoch: 1000
next table: 2061
cur table: 2062
epoch: 1000
next table: 1589
cur table: 1579
epoch: 1000
next table: 2068
cur table: 2061
epoch: 1000
next table: 1554
cur table: 1589
epoch: 1000
next table: 2060
cur table: 2068
epoch: 1000
next table: 1570
cur table: 1554
epoch: 1000
next table: 2068
cur table: 2060
epoch: 1000
next table: 1583
cur table: 1570
epoch: 1000
next table: 2058
cur table: 2068
epoch: 1000
next table: 1589
cur table: 1583
epoch: 1000
next table: 2063
cur table: 2058
epoch: 1000
next table: 1585
cur table: 1589
epoch: 1000
next table: 2065
cur table: 2063
epoch: 1000
next table: 1564
cur table: 1585
epoch: 1000
next table: 2067
cur table: 2065
epoch: 1000
next table: 1586
cur table: 1564
epoch: 1000
next table: 2060
cur table: 2067
epoch: 1000
next table: 1575
cur table: 1586
epoch: 1000
next table: 2066
cur table: 2060
epoch: 1000
next table: 1582
cur table: 1575
epoch: 1000
next table: 2063
cur table: 2066
epoch: 1000
next table: 1577
cur table: 1582
epoch: 1000
next table: 2065
cur table: 2063
epoch: 1000
next table: 1577
cur table: 1577
epoch: 1000
next table: 2063
cur table: 2065
epoch: 1000
next table: 1583
cur table: 1577
epoch: 1000
next table: 2065
cur table: 2063
epoch: 1000
next table: 1575
cur table: 1583
epoch: 1000
next table: 2066
cur table: 2065
epoch: 1000
next table: 1564
cur table: 1575
epoch: 1000
next table: 2067
cur table: 2066
epoch: 1000
next table: 1552
cur table: 1564
epoch: 1000
next table: 2062
cur table: 2067
epoch: 1000
next table: 1577
cur table: 1552
epoch: 1000
next table: 2065
cur table: 2062
epoch: 1000
next table: 1570
cur table: 1577
epoch: 1000
next table: 2061
cur table: 2065
epoch: 1000
next table: 1572
cur table: 1570
epoch: 1000
next table: 2068
cur table: 2061
epoch: 1000
next table: 1575
cur table: 1572
epoch: 1000
next table: 2058
cur table: 2068
epoch: 1000
next table: 1571
cur table: 1575
epoch: 1000
next table: 2060
cur table: 2058
epoch: 1000
next table: 1577
cur table: 1571
epoch: 1000
next table: 2060
cur table: 2060
epoch: 1000
next table: 1586
cur table: 1577
epoch: 1000
next table: 2066
cur table: 2060
epoch: 1000
next table: 1587
cur table: 1586
epoch: 1000
next table: 2064
cur table: 2066
epoch: 1000
next table: 1557
cur table: 1587
epoch: 1000
next table: 2068
cur table: 2064
epoch: 1000
next table: 1560
cur table: 1557
epoch: 1000
next table: 2058
cur table: 2068
epoch: 1000
next table: 1559
cur table: 1560
epoch: 1000
next table: 2066
cur table: 2058
epoch: 1000
next table: 1579
cur table: 1559
epoch: 1000
next table: 2055
cur table: 2066
epoch: 1000
next table: 1582
cur table: 1579
epoch: 1000
next table: 2069
cur table: 2055
epoch: 1000
next table: 1563
cur table: 1582
epoch: 1000
next table: 2055
cur table: 2069
epoch: 1000
next table: 1568
cur table: 1563
epoch: 1000
next table: 2062
cur table: 2055
epoch: 1000
next table: 1583
cur table: 1568
epoch: 1000
next table: 2055
cur table: 2062
epoch: 1000
next table: 1562
cur table: 1583
epoch: 1000
next table: 2067
cur table: 2055
epoch: 1000
next table: 1556
cur table: 1562
epoch: 1000
next table: 2064
cur table: 2067
epoch: 1000
next table: 1552
cur table: 1556
epoch: 1000
next table: 2061
cur table: 2064
epoch: 1000
next table: 1561
cur table: 1552
epoch: 1000
next table: 2062
cur table: 2061
epoch: 1000
next table: 1558
cur table: 1561
epoch: 1000
next table: 2061
cur table: 2062
epoch: 1000
next table: 1588
cur table: 1558
epoch: 1000
next table: 2056
cur table: 2061
epoch: 1000
next table: 1577
cur table: 1588
epoch: 1000
next table: 2067
cur table: 2056
epoch: 1000
next table: 1583
cur table: 1577
epoch: 1000
next table: 2064
cur table: 2067
epoch: 1000
next table: 1566
cur table: 1583
epoch: 1000
next table: 2067
cur table: 2064
epoch: 1000
next table: 1597
cur table: 1566
epoch: 1000
next table: 2058
cur table: 2067
epoch: 1000
next table: 1570
cur table: 1597
epoch: 1000
next table: 2063
cur table: 2058
epoch: 1000
next table: 1579
cur table: 1570
epoch: 1000
next table: 2060
cur table: 2063
epoch: 1000
next table: 1571
cur table: 1579
epoch: 1000
next table: 2061
cur table: 2060
epoch: 1000
next table: 1599
cur table: 1571
epoch: 1000
next table: 2060
cur table: 2061
epoch: 1000
next table: 1602
cur table: 1599
epoch: 1000
next table: 2062
cur table: 2060
epoch: 1000
next table: 1570
cur table: 1602
epoch: 1000
next table: 2062
cur table: 2062
epoch: 1000
next table: 1579
cur table: 1570
epoch: 1000
next table: 2068
cur table: 2062
epoch: 1000
next table: 1565
cur table: 1579
epoch: 1000
next table: 2056
cur table: 2068
epoch: 1000
next table: 1590
cur table: 1565
epoch: 1000
next table: 2061
cur table: 2056
epoch: 1000
next table: 1592
cur table: 1590
epoch: 1000
next table: 2063
cur table: 2061
epoch: 1000
next table: 1588
cur table: 1592
epoch: 1000
next table: 2063
cur table: 2063
epoch: 1000
next table: 1558
cur table: 1588
epoch: 1000
next table: 2063
cur table: 2063
epoch: 1000
next table: 1553
cur table: 1558
epoch: 1000
next table: 2055
cur table: 2063
epoch: 1000
next table: 1570
cur table: 1553
epoch: 1000
next table: 2062
cur table: 2055
epoch: 1000
next table: 1594
cur table: 1570
epoch: 1000
next table: 2067
cur table: 2062
epoch: 1000
next table: 1585
cur table: 1594
epoch: 1000
next table: 2057
cur table: 2067
epoch: 1000
next table: 1575
cur table: 1585
epoch: 1000
next table: 2061
cur table: 2057
epoch: 1000
next table: 1567
cur table: 1575
epoch: 1000
next table: 2069
cur table: 2061
epoch: 1000
next table: 1569
cur table: 1567
epoch: 1000
next table: 2050
cur table: 2069
epoch: 1000
next table: 1588
cur table: 1569
epoch: 1000
next table: 2062
cur table: 2050
epoch: 1000
next table: 1567
cur table: 1588
epoch: 1000
next table: 2059
cur table: 2062
epoch: 1000
next table: 1574
cur table: 1567
epoch: 1000
next table: 2068
cur table: 2059
epoch: 1000
next table: 1564
cur table: 1574
epoch: 1000
next table: 2064
cur table: 2068
epoch: 1000
next table: 1572
cur table: 1564
epoch: 1000
next table: 2059
cur table: 2064
epoch: 1000
next table: 1550
cur table: 1572
epoch: 1000
next table: 2059
cur table: 2059
epoch: 1000
next table: 1579
cur table: 1550
epoch: 1000
next table: 2061
cur table: 2059
epoch: 1000
next table: 1586
cur table: 1579
epoch: 1000
next table: 2065
cur table: 2061
epoch: 1000
next table: 1572
cur table: 1586
epoch: 1000
next table: 2064
cur table: 2065
epoch: 1000
next table: 1578
cur table: 1572
epoch: 1000
next table: 2055
cur table: 2064
epoch: 1000
next table: 1586
cur table: 1578
epoch: 1000
next table: 2063
cur table: 2055
epoch: 1000
next table: 1566
cur table: 1586
epoch: 1000
next table: 2060
cur table: 2063
epoch: 1000
next table: 1602
cur table: 1566
epoch: 1000
next table: 2061
cur table: 2060
epoch: 1000
next table: 1567
cur table: 1602
epoch: 1000
next table: 2062
cur table: 2061
epoch: 1000
next table: 1577
cur table: 1567
epoch: 1000
next table: 2063
cur table: 2062
epoch: 1000
next table: 1563
cur table: 1577
epoch: 1000
next table: 2061
cur table: 2063
epoch: 1000
next table: 1584
cur table: 1563
epoch: 1000
next table: 2059
cur table: 2061
epoch: 1000
next table: 1607
cur table: 1584
epoch: 1000
next table: 2063
cur table: 2059
epoch: 1000
next table: 1573
cur table: 1607
epoch: 1000
next table: 2064
cur table: 2063
epoch: 1000
next table: 1583
cur table: 1573
epoch: 1000
next table: 2059
cur table: 2064
epoch: 1000
next table: 1588
cur table: 1583
epoch: 1000
next table: 2065
cur table: 2059
epoch: 1000
next table: 1593
cur table: 1588
epoch: 1000
next table: 2065
cur table: 2065
epoch: 1000
next table: 1593
cur table: 1593
epoch: 1000
next table: 2065
cur table: 2065
epoch: 1000
next table: 1577
cur table: 1593
epoch: 1000
next table: 2064
cur table: 2065
epoch: 1000
next table: 1563
cur table: 1577
epoch: 1000
next table: 2061
cur table: 2064
epoch: 1000
next table: 1574
cur table: 1563
epoch: 1000
next table: 2059
cur table: 2061
epoch: 1000
next table: 1588
cur table: 1574
epoch: 1000
next table: 2064
cur table: 2059
epoch: 1000
next table: 1586
cur table: 1588
epoch: 1000
next table: 2061
cur table: 2064
epoch: 1000
next table: 1591
cur table: 1586
epoch: 1000
next table: 2061
cur table: 2061
epoch: 1000
next table: 1600
cur table: 1591
epoch: 1000
next table: 2066
cur table: 2061
epoch: 1000
next table: 1588
cur table: 1600
epoch: 1000
next table: 2062
cur table: 2066
epoch: 1000
next table: 1584
cur table: 1588
epoch: 1000
next table: 2065
cur table: 2062
epoch: 1000
next table: 1561
cur table: 1584
epoch: 1000
next table: 2069
cur table: 2065
epoch: 1000
next table: 1577
cur table: 1561
epoch: 1000
next table: 2063
cur table: 2069
epoch: 1000
next table: 1594
cur table: 1577
epoch: 1000
next table: 2062
cur table: 2063
epoch: 1000
next table: 1584
cur table: 1594
epoch: 1000
next table: 2061
cur table: 2062
epoch: 1000
next table: 1577
cur table: 1584
epoch: 1000
next table: 2066
cur table: 2061
epoch: 1000
next table: 1563
cur table: 1577
epoch: 1000
next table: 2065
cur table: 2066
epoch: 1000
next table: 1568
cur table: 1563
epoch: 1000
next table: 2067
cur table: 2065
epoch: 1000
next table: 1561
cur table: 1568
epoch: 1000
next table: 2058
cur table: 2067
epoch: 1000
next table: 1574
cur table: 1561
epoch: 1000
next table: 2066
cur table: 2058
epoch: 1000
next table: 1565
cur table: 1574
epoch: 1000
next table: 2061
cur table: 2066
epoch: 1000
next table: 1587
cur table: 1565
epoch: 1000
next table: 2064
cur table: 2061
epoch: 1000
next table: 1590
cur table: 1587
epoch: 1000
next table: 2058
cur table: 2064
epoch: 1000
next table: 1590
cur table: 1590
epoch: 1000
next table: 2067
cur table: 2058
epoch: 1000
next table: 1579
cur table: 1590
epoch: 1000
next table: 2057
cur table: 2067
epoch: 1000
next table: 1593
cur table: 1579
epoch: 1000
next table: 2073
cur table: 2057
epoch: 1000
next table: 1554
cur table: 1593
epoch: 1000
next table: 2058
cur table: 2073
epoch: 1000
next table: 1576
cur table: 1554
epoch: 1000
next table: 2068
cur table: 2058
epoch: 1000
next table: 1560
cur table: 1576
epoch: 1000
next table: 2061
cur table: 2068
epoch: 1000
next table: 1553
cur table: 1560
epoch: 1000
next table: 2067
cur table: 2061
epoch: 1000
next table: 1564
cur table: 1553
epoch: 1000
next table: 2060
cur table: 2067
epoch: 1000
next table: 1565
cur table: 1564
epoch: 1000
next table: 2057
cur table: 2060
epoch: 1000
next table: 1562
cur table: 1565
epoch: 1000
next table: 2062
cur table: 2057
epoch: 1000
next table: 1573
cur table: 1562
epoch: 1000
next table: 2065
cur table: 2062
epoch: 1000
next table: 1570
cur table: 1573
epoch: 1000
next table: 2062
cur table: 2065
epoch: 1000
next table: 1538
cur table: 1570
Heartbeat CPU 0 instructions: 40000001 cycles: 13254023 heartbeat IPC: 3.01782 cumulative IPC: 3.01795 (Simulation time: 0 hr 10 min 29 sec) 
epoch: 1000
next table: 2059
cur table: 2062
epoch: 1000
next table: 1575
cur table: 1538
epoch: 1000
next table: 2055
cur table: 2059
epoch: 1000
next table: 1588
cur table: 1575
epoch: 1000
next table: 2067
cur table: 2055
epoch: 1000
next table: 1585
cur table: 1588
epoch: 1000
next table: 2060
cur table: 2067
epoch: 1000
next table: 1579
cur table: 1585
epoch: 1000
next table: 2065
cur table: 2060
epoch: 1000
next table: 1570
cur table: 1579
epoch: 1000
next table: 2062
cur table: 2065
epoch: 1000
next table: 1595
cur table: 1570
epoch: 1000
next table: 2065
cur table: 2062
epoch: 1000
next table: 1578
cur table: 1595
epoch: 1000
next table: 2062
cur table: 2065
epoch: 1000
next table: 1569
cur table: 1578
epoch: 1000
next table: 2064
cur table: 2062
epoch: 1000
next table: 1553
cur table: 1569
epoch: 1000
next table: 2061
cur table: 2064
epoch: 1000
next table: 1567
cur table: 1553
epoch: 1000
next table: 2060
cur table: 2061
epoch: 1000
next table: 1582
cur table: 1567
epoch: 1000
next table: 2064
cur table: 2060
epoch: 1000
next table: 1575
cur table: 1582
epoch: 1000
next table: 2056
cur table: 2064
epoch: 1000
next table: 1576
cur table: 1575
epoch: 1000
next table: 2056
cur table: 2056
epoch: 1000
next table: 1544
cur table: 1576
epoch: 1000
next table: 2060
cur table: 2056
epoch: 1000
next table: 1582
cur table: 1544
epoch: 1000
next table: 2064
cur table: 2060
epoch: 1000
next table: 1617
cur table: 1582
epoch: 1000
next table: 2066
cur table: 2064
epoch: 1000
next table: 1566
cur table: 1617
epoch: 1000
next table: 2056
cur table: 2066
epoch: 1000
next table: 1576
cur table: 1566
epoch: 1000
next table: 2059
cur table: 2056
epoch: 1000
next table: 1571
cur table: 1576
epoch: 1000
next table: 2061
cur table: 2059
epoch: 1000
next table: 1575
cur table: 1571
epoch: 1000
next table: 2065
cur table: 2061
epoch: 1000
next table: 1556
cur table: 1575
epoch: 1000
next table: 2056
cur table: 2065
epoch: 1000
next table: 1567
cur table: 1556
epoch: 1000
next table: 2065
cur table: 2056
epoch: 1000
next table: 1576
cur table: 1567
epoch: 1000
next table: 2064
cur table: 2065
epoch: 1000
next table: 1585
cur table: 1576
epoch: 1000
next table: 2071
cur table: 2064
epoch: 1000
next table: 1593
cur table: 1585
epoch: 1000
next table: 2054
cur table: 2071
epoch: 1000
next table: 1546
cur table: 1593
epoch: 1000
next table: 2069
cur table: 2054
epoch: 1000
next table: 1544
cur table: 1546
epoch: 1000
next table: 2061
cur table: 2069
epoch: 1000
next table: 1569
cur table: 1544
epoch: 1000
next table: 2062
cur table: 2061
epoch: 1000
next table: 1583
cur table: 1569
epoch: 1000
next table: 2060
cur table: 2062
epoch: 1000
next table: 1583
cur table: 1583
epoch: 1000
next table: 2068
cur table: 2060
epoch: 1000
next table: 1584
cur table: 1583
epoch: 1000
next table: 2063
cur table: 2068
epoch: 1000
next table: 1561
cur table: 1584
epoch: 1000
next table: 2066
cur table: 2063
epoch: 1000
next table: 1563
cur table: 1561
epoch: 1000
next table: 2058
cur table: 2066
epoch: 1000
next table: 1564
cur table: 1563
epoch: 1000
next table: 2064
cur table: 2058
epoch: 1000
next table: 1582
cur table: 1564
epoch: 1000
next table: 2063
cur table: 2064
epoch: 1000
next table: 1557
cur table: 1582
epoch: 1000
next table: 2068
cur table: 2063
epoch: 1000
next table: 1577
cur table: 1557
epoch: 1000
next table: 2062
cur table: 2068
epoch: 1000
next table: 1587
cur table: 1577
epoch: 1000
next table: 2062
cur table: 2062
epoch: 1000
next table: 1561
cur table: 1587
epoch: 1000
next table: 2061
cur table: 2062
epoch: 1000
next table: 1593
cur table: 1561
epoch: 1000
next table: 2063
cur table: 2061
epoch: 1000
next table: 1579
cur table: 1593
epoch: 1000
next table: 2065
cur table: 2063
epoch: 1000
next table: 1578
cur table: 1579
epoch: 1000
next table: 2060
cur table: 2065
epoch: 1000
next table: 1599
cur table: 1578
epoch: 1000
next table: 2058
cur table: 2060
epoch: 1000
next table: 1545
cur table: 1599
epoch: 1000
next table: 2066
cur table: 2058
epoch: 1000
next table: 1582
cur table: 1545
epoch: 1000
next table: 2065
cur table: 2066
epoch: 1000
next table: 1548
cur table: 1582
epoch: 1000
next table: 2065
cur table: 2065
epoch: 1000
next table: 1583
cur table: 1548
epoch: 1000
next table: 2059
cur table: 2065
epoch: 1000
next table: 1563
cur table: 1583
epoch: 1000
next table: 2065
cur table: 2059
epoch: 1000
next table: 1590
cur table: 1563
epoch: 1000
next table: 2067
cur table: 2065
epoch: 1000
next table: 1567
cur table: 1590
epoch: 1000
next table: 2066
cur table: 2067
epoch: 1000
next table: 1578
cur table: 1567
epoch: 1000
next table: 2062
cur table: 2066
epoch: 1000
next table: 1597
cur table: 1578
epoch: 1000
next table: 2071
cur table: 2062
epoch: 1000
next table: 1581
cur table: 1597
epoch: 1000
next table: 2056
cur table: 2071
epoch: 1000
next table: 1584
cur table: 1581
epoch: 1000
next table: 2069
cur table: 2056
epoch: 1000
next table: 1536
cur table: 1584
epoch: 1000
next table: 2063
cur table: 2069
epoch: 1000
next table: 1590
cur table: 1536
epoch: 1000
next table: 2059
cur table: 2063
epoch: 1000
next table: 1600
cur table: 1590
epoch: 1000
next table: 2058
cur table: 2059
epoch: 1000
next table: 1585
cur table: 1600
epoch: 1000
next table: 2063
cur table: 2058
epoch: 1000
next table: 1589
cur table: 1585
epoch: 1000
next table: 2060
cur table: 2063
epoch: 1000
next table: 1568
cur table: 1589
epoch: 1000
next table: 2065
cur table: 2060
epoch: 1000
next table: 1563
cur table: 1568
epoch: 1000
next table: 2061
cur table: 2065
epoch: 1000
next table: 1550
cur table: 1563
epoch: 1000
next table: 2061
cur table: 2061
epoch: 1000
next table: 1569
cur table: 1550
epoch: 1000
next table: 2058
cur table: 2061
epoch: 1000
next table: 1567
cur table: 1569
epoch: 1000
next table: 2067
cur table: 2058
epoch: 1000
next table: 1566
cur table: 1567
epoch: 1000
next table: 2057
cur table: 2067
epoch: 1000
next table: 1598
cur table: 1566
epoch: 1000
next table: 2067
cur table: 2057
epoch: 1000
next table: 1566
cur table: 1598
epoch: 1000
next table: 2056
cur table: 2067
epoch: 1000
next table: 1565
cur table: 1566
epoch: 1000
next table: 2060
cur table: 2056
epoch: 1000
next table: 1531
cur table: 1565
epoch: 1000
next table: 2064
cur table: 2060
epoch: 1000
next table: 1573
cur table: 1531
epoch: 1000
next table: 2066
cur table: 2064
epoch: 1000
next table: 1579
cur table: 1573
epoch: 1000
next table: 2066
cur table: 2066
epoch: 1000
next table: 1578
cur table: 1579
epoch: 1000
next table: 2064
cur table: 2066
epoch: 1000
next table: 1583
cur table: 1578
epoch: 1000
next table: 2064
cur table: 2064
epoch: 1000
next table: 1586
cur table: 1583
epoch: 1000
next table: 2059
cur table: 2064
epoch: 1000
next table: 1603
cur table: 1586
epoch: 1000
next table: 2066
cur table: 2059
epoch: 1000
next table: 1584
cur table: 1603
epoch: 1000
next table: 2064
cur table: 2066
epoch: 1000
next table: 1568
cur table: 1584
epoch: 1000
next table: 2064
cur table: 2064
epoch: 1000
next table: 1544
cur table: 1568
epoch: 1000
next table: 2059
cur table: 2064
epoch: 1000
next table: 1569
cur table: 1544
epoch: 1000
next table: 2069
cur table: 2059
epoch: 1000
next table: 1574
cur table: 1569
epoch: 1000
next table: 2067
cur table: 2069
epoch: 1000
next table: 1565
cur table: 1574
epoch: 1000
next table: 2056
cur table: 2067
epoch: 1000
next table: 1569
cur table: 1565
epoch: 1000
next table: 2059
cur table: 2056
epoch: 1000
next table: 1577
cur table: 1569
epoch: 1000
next table: 2060
cur table: 2059
epoch: 1000
next table: 1558
cur table: 1577
epoch: 1000
next table: 2063
cur table: 2060
epoch: 1000
next table: 1587
cur table: 1558
epoch: 1000
next table: 2066
cur table: 2063
epoch: 1000
next table: 1582
cur table: 1587
epoch: 1000
next table: 2063
cur table: 2066
epoch: 1000
next table: 1588
cur table: 1582
epoch: 1000
next table: 2065
cur table: 2063
epoch: 1000
next table: 1566
cur table: 1588
epoch: 1000
next table: 2065
cur table: 2065
epoch: 1000
next table: 1592
cur table: 1566
epoch: 1000
next table: 2061
cur table: 2065
epoch: 1000
next table: 1590
cur table: 1592
epoch: 1000
next table: 2066
cur table: 2061
epoch: 1000
next table: 1587
cur table: 1590
epoch: 1000
next table: 2063
cur table: 2066
epoch: 1000
next table: 1596
cur table: 1587
epoch: 1000
next table: 2065
cur table: 2063
epoch: 1000
next table: 1581
cur table: 1596
epoch: 1000
next table: 2061
cur table: 2065
epoch: 1000
next table: 1595
cur table: 1581
epoch: 1000
next table: 2073
cur table: 2061
epoch: 1000
next table: 1567
cur table: 1595
epoch: 1000
next table: 2054
cur table: 2073
epoch: 1000
next table: 1583
cur table: 1567
epoch: 1000
next table: 2055
cur table: 2054
epoch: 1000
next table: 1576
cur table: 1583
epoch: 1000
next table: 2062
cur table: 2055
epoch: 1000
next table: 1559
cur table: 1576
epoch: 1000
next table: 2061
cur table: 2062
epoch: 1000
next table: 1604
cur table: 1559
epoch: 1000
next table: 2063
cur table: 2061
epoch: 1000
next table: 1562
cur table: 1604
epoch: 1000
next table: 2069
cur table: 2063
epoch: 1000
next table: 1601
cur table: 1562
epoch: 1000
next table: 2062
cur table: 2069
epoch: 1000
next table: 1557
cur table: 1601
epoch: 1000
next table: 2070
cur table: 2062
epoch: 1000
next table: 1569
cur table: 1557
epoch: 1000
next table: 2061
cur table: 2070
epoch: 1000
next table: 1566
cur table: 1569
epoch: 1000
next table: 2066
cur table: 2061
epoch: 1000
next table: 1577
cur table: 1566
epoch: 1000
next table: 2064
cur table: 2066
epoch: 1000
next table: 1578
cur table: 1577
epoch: 1000
next table: 2062
cur table: 2064
epoch: 1000
next table: 1575
cur table: 1578
epoch: 1000
next table: 2061
cur table: 2062
epoch: 1000
next table: 1575
cur table: 1575
epoch: 1000
next table: 2067
cur table: 2061
epoch: 1000
next table: 1582
cur table: 1575
epoch: 1000
next table: 2062
cur table: 2067
epoch: 1000
next table: 1581
cur table: 1582
epoch: 1000
next table: 2066
cur table: 2062
epoch: 1000
next table: 1559
cur table: 1581
epoch: 1000
next table: 2062
cur table: 2066
epoch: 1000
next table: 1585
cur table: 1559
epoch: 1000
next table: 2067
cur table: 2062
epoch: 1000
next table: 1577
cur table: 1585
epoch: 1000
next table: 2054
cur table: 2067
epoch: 1000
next table: 1557
cur table: 1577
epoch: 1000
next table: 2063
cur table: 2054
epoch: 1000
next table: 1574
cur table: 1557
epoch: 1000
next table: 2056
cur table: 2063
epoch: 1000
next table: 1536
cur table: 1574
epoch: 1000
next table: 2063
cur table: 2056
epoch: 1000
next table: 1580
cur table: 1536
epoch: 1000
next table: 2056
cur table: 2063
epoch: 1000
next table: 1577
cur table: 1580
epoch: 1000
next table: 2057
cur table: 2056
epoch: 1000
next table: 1571
cur table: 1577
epoch: 1000
next table: 2065
cur table: 2057
epoch: 1000
next table: 1608
cur table: 1571
epoch: 1000
next table: 2059
cur table: 2065
epoch: 1000
next table: 1568
cur table: 1608
epoch: 1000
next table: 2064
cur table: 2059
epoch: 1000
next table: 1570
cur table: 1568
epoch: 1000
next table: 2065
cur table: 2064
epoch: 1000
next table: 1580
cur table: 1570
epoch: 1000
next table: 2062
cur table: 2065
epoch: 1000
next table: 1573
cur table: 1580
epoch: 1000
next table: 2058
cur table: 2062
epoch: 1000
next table: 1581
cur table: 1573
epoch: 1000
next table: 2067
cur table: 2058
epoch: 1000
next table: 1577
cur table: 1581
epoch: 1000
next table: 2067
cur table: 2067
epoch: 1000
next table: 1601
cur table: 1577
epoch: 1000
next table: 2063
cur table: 2067
epoch: 1000
next table: 1571
cur table: 1601
epoch: 1000
next table: 2060
cur table: 2063
epoch: 1000
next table: 1577
cur table: 1571
epoch: 1000
next table: 2064
cur table: 2060
epoch: 1000
next table: 1566
cur table: 1577
epoch: 1000
next table: 2058
cur table: 2064
epoch: 1000
next table: 1589
cur table: 1566
epoch: 1000
next table: 2067
cur table: 2058
epoch: 1000
next table: 1590
cur table: 1589
epoch: 1000
[...]
next table: 1471
cur table: 1473
epoch: 1000
next table: 2071
cur table: 2065
epoch: 1000
next table: 1476
cur table: 1471
epoch: 1000
next table: 2061
cur table: 2071
epoch: 1000
next table: 1436
cur table: 1476
epoch: 1000
next table: 2064
cur table: 2061
epoch: 1000
next table: 1479
cur table: 1436
epoch: 1000
next table: 2059
cur table: 2064
epoch: 1000
next table: 1463
cur table: 1479
epoch: 1000
next table: 2067
cur table: 2059
epoch: 1000
next table: 1488
cur table: 1463
epoch: 1000
next table: 2064
cur table: 2067
epoch: 1000
next table: 1422
cur table: 1488
epoch: 1000
next table: 2068
cur table: 2064
epoch: 1000
next table: 1454
cur table: 1422
epoch: 1000
next table: 2066
cur table: 2068
epoch: 1000
next table: 1447
cur table: 1454
epoch: 1000
next table: 2058
cur table: 2066
epoch: 1000
next table: 1488
cur table: 1447
epoch: 1000
next table: 2068
cur table: 2058
epoch: 1000
next table: 1467
cur table: 1488
epoch: 1000
next table: 2068
cur table: 2068
epoch: 1000
next table: 1470
cur table: 1467
epoch: 1000
next table: 2053
cur table: 2068
epoch: 1000
next table: 1484
cur table: 1470
epoch: 1000
next table: 2076
cur table: 2053
epoch: 1000
next table: 1455
cur table: 1484
epoch: 1000
next table: 2063
cur table: 2076
epoch: 1000
next table: 1454
cur table: 1455
epoch: 1000
next table: 2065
cur table: 2063
epoch: 1000
next table: 1468
cur table: 1454
epoch: 1000
next table: 2068
cur table: 2065
epoch: 1000
next table: 1491
cur table: 1468
epoch: 1000
next table: 2056
cur table: 2068
epoch: 1000
next table: 1437
cur table: 1491
epoch: 1000
next table: 2060
cur table: 2056
epoch: 1000
next table: 1441
cur table: 1437
epoch: 1000
next table: 2065
cur table: 2060
epoch: 1000
next table: 1496
cur table: 1441
epoch: 1000
next table: 2072
cur table: 2065
epoch: 1000
next table: 1471
cur table: 1496
epoch: 1000
next table: 2059
cur table: 2072
epoch: 1000
next table: 1482
cur table: 1471
epoch: 1000
next table: 2066
cur table: 2059
epoch: 1000
next table: 1445
cur table: 1482
epoch: 1000
next table: 2067
cur table: 2066
epoch: 1000
next table: 1506
cur table: 1445
epoch: 1000
next table: 2065
cur table: 2067
epoch: 1000
next table: 1459
cur table: 1506
epoch: 1000
next table: 2065
cur table: 2065
epoch: 1000
next table: 1465
cur table: 1459
epoch: 1000
next table: 2060
cur table: 2065
epoch: 1000
next table: 1475
cur table: 1465
Heartbeat CPU 0 instructions: 100000002 cycles: 72986238 heartbeat IPC: 0.886318 cumulative IPC: 0.886236 (Simulation time: 0 hr 24 min 8 sec) 
Finished CPU 0 instructions: 50000003 cycles: 56418357 cumulative IPC: 0.886236 (Simulation time: 0 hr 24 min 8 sec) 

ChampSim completed all CPUs

Region of Interest Statistics

CPU 0 cumulative IPC: 0.886236 instructions: 50000003 cycles: 56418357
ITLB TOTAL     ACCESS:    6356471  HIT:    6356471  MISS:          0  HIT %:        100  MISS %:          0   MPKI: 0
ITLB LOAD TRANSLATION ACCESS:    6356471  HIT:    6356471  MISS:          0  HIT %:        100  MISS %:          0   MPKI: 0
ITLB PREFETCH  REQUESTED:          0  ISSUED:          0  USEFUL:          0  USELESS:          0
ITLB USEFUL LOAD PREFETCHES:          0 PREFETCH ISSUED TO LOWER LEVEL:          0  ACCURACY: -nan
ITLB TIMELY PREFETCHES:          0 LATE PREFETCHES: 0 DROPPED PREFETCHES: 0
ITLB PREFETCHES SAME FILL-ORIGIN LEVEL: 0 DIFFERENT FILL-ORIGIN LEVEL: 0
ITLB AVERAGE MISS LATENCY: -nan cycles
ITLB RQ	ACCESS:    8463059	FORWARD:          0	MERGED:    2106589	TO_CACHE:    6356470

Revised Interactions: positive negative neutral
ITLB_interactions 0 0 0 -nan -nan -nan
DTLB TOTAL     ACCESS:   16350733  HIT:   16252075  MISS:      98658  HIT %:    99.3966  MISS %:   0.603386   MPKI: 1.97316
DTLB LOAD TRANSLATION ACCESS:   16350733  HIT:   16252075  MISS:      98658  HIT %:    99.3966  MISS %:   0.603386   MPKI: 1.97316
DTLB PREFETCH  REQUESTED:          0  ISSUED:          0  USEFUL:          0  USELESS:          0
DTLB USEFUL LOAD PREFETCHES:          0 PREFETCH ISSUED TO LOWER LEVEL:          0  ACCURACY: -nan
DTLB TIMELY PREFETCHES:          0 LATE PREFETCHES: 0 DROPPED PREFETCHES: 0
DTLB PREFETCHES SAME FILL-ORIGIN LEVEL: 0 DIFFERENT FILL-ORIGIN LEVEL: 0
DTLB AVERAGE MISS LATENCY: 83.3394 cycles
DTLB RQ	ACCESS:   19020284	FORWARD:          0	MERGED:    2655059	TO_CACHE:   16365225

Revised Interactions: positive negative neutral
DTLB_interactions 0 0 0 -nan -nan -nan
STLB TOTAL     ACCESS:      98658  HIT:      83813  MISS:      14845  HIT %:    84.9531  MISS %:    15.0469   MPKI: 0.2969
STLB LOAD TRANSLATION ACCESS:      98658  HIT:      83813  MISS:      14845  HIT %:    84.9531  MISS %:    15.0469   MPKI: 0.2969
STLB PREFETCH  REQUESTED:          0  ISSUED:          0  USEFUL:          0  USELESS:          0
STLB USEFUL LOAD PREFETCHES:          0 PREFETCH ISSUED TO LOWER LEVEL:          0  ACCURACY: -nan
STLB TIMELY PREFETCHES:          0 LATE PREFETCHES: 0 DROPPED PREFETCHES: 0
STLB PREFETCHES SAME FILL-ORIGIN LEVEL: 0 DIFFERENT FILL-ORIGIN LEVEL: 0
STLB AVERAGE MISS LATENCY: 467.886 cycles
STLB RQ	ACCESS:      98658	FORWARD:          0	MERGED:          0	TO_CACHE:      98658

Revised Interactions: positive negative neutral
STLB_interactions 0 0 0 -nan -nan -nan
STLB Hit, L1D data hit: 0
STLB Hit, L2C data hit: 0
STLB Hit, LLC data hit: 0
STLB Hit, LLC data miss: 0
STLB STLB hints to L2: 0
L1D TOTAL     ACCESS:   18870759  HIT:   17871157  MISS:     999602  HIT %:    94.7029  MISS %:    5.29709   MPKI: 19.992
L1D LOAD      ACCESS:   16062069  HIT:   15086829  MISS:     975240  HIT %:    93.9283  MISS %:     6.0717   MPKI: 19.5048
L1D RFO       ACCESS:    2808690  HIT:    2784328  MISS:      24362  HIT %:    99.1326  MISS %:   0.867379   MPKI: 0.48724
L1D PREFETCH  REQUESTED:          0  ISSUED:          0  USEFUL:          0  USELESS:          0
L1D USEFUL LOAD PREFETCHES:          0 PREFETCH ISSUED TO LOWER LEVEL:          0  ACCURACY: -nan
L1D TIMELY PREFETCHES:          0 LATE PREFETCHES: 0 DROPPED PREFETCHES: 0
L1D PREFETCHES SAME FILL-ORIGIN LEVEL: 0 DIFFERENT FILL-ORIGIN LEVEL: 0
L1D AVERAGE MISS LATENCY: 52.2778 cycles
L1D RQ	ACCESS:   21232707	FORWARD:          0	MERGED:    4961868	TO_CACHE:   16203587
L1D WQ	ACCESS:    2816717	FORWARD:      67252	MERGED:         20	TO_CACHE:    2816697

Revised Interactions: positive negative neutral
L1D_interactions 0 0 0 -nan -nan -nan
L1D UNIQUE REGIONS ACCESSED: 0
L1D REGIONS CONFLICTS: 0
L1D Cross Page Prefetch Requests: 0
L1D Same Page Prefetch Requests: 0
L1D ROI Sum of L1D PQ occupancy: 0
L1D PREFETCHES PUSHED FROM L2C: 0
L1I TOTAL     ACCESS:    8463059  HIT:    8463059  MISS:          0  HIT %:        100  MISS %:          0   MPKI: 0
L1I LOAD      ACCESS:    8463059  HIT:    8463059  MISS:          0  HIT %:        100  MISS %:          0   MPKI: 0
L1I PREFETCH  REQUESTED:          0  ISSUED:          0  USEFUL:          0  USELESS:          0
L1I USEFUL LOAD PREFETCHES:          0 PREFETCH ISSUED TO LOWER LEVEL:          0  ACCURACY: -nan
L1I TIMELY PREFETCHES:          0 LATE PREFETCHES: 0 DROPPED PREFETCHES: 0
L1I PREFETCHES SAME FILL-ORIGIN LEVEL: 0 DIFFERENT FILL-ORIGIN LEVEL: 0
L1I AVERAGE MISS LATENCY: -nan cycles
L1I RQ	ACCESS:   11737609	FORWARD:          0	MERGED:    3274550	TO_CACHE:    8463059

Revised Interactions: positive negative neutral
L1I_interactions 0 0 0 -nan -nan -nan
BTB TOTAL     ACCESS:    1208720  HIT:    1208715  MISS:          5  HIT %:    99.9996  MISS %: 0.000413661   MPKI: 0.0001
BTB BRANCH_DIRECT_JUMP	ACCESS:          0  HIT:          0  MISS:          0
BTB BRANCH_INDIRECT	ACCESS:          0  HIT:          0  MISS:          0
BTB BRANCH_CONDITIONAL	ACCESS:    1208720  HIT:    1208715  MISS:          5
BTB BRANCH_DIRECT_CALL	ACCESS:          0  HIT:          0  MISS:          0
BTB BRANCH_INDIRECT_CALL	ACCESS:          0  HIT:          0  MISS:          0
BTB BRANCH_RETURN	ACCESS:          0  HIT:          0  MISS:          0
BTB BRANCH_OTHER ACCESS:          0  HIT:          0  MISS:          0

L2C TOTAL     ACCESS:    1618821  HIT:     664755  MISS:     954066  HIT %:    41.0641  MISS %:    58.9359   MPKI: 19.0813
L2C LOAD      ACCESS:     975240  HIT:     455119  MISS:     520121  HIT %:    46.6674  MISS %:    53.3326   MPKI: 10.4024
L2C DATA LOAD MPKI: 10.4024
L2C INSTRUCTION LOAD MPKI: 0
L2C RFO       ACCESS:      24362  HIT:          0  MISS:      24362  HIT %:          0  MISS %:        100   MPKI: 0.48724
L2C PREFETCH  ACCESS:     579639  HIT:     172677  MISS:     406962  HIT %:    29.7904  MISS %:    70.2096   MPKI: 8.13924
L2C DATA PREFETCH MPKI: 8.13924
L2C INSTRUCTION PREFETCH MPKI: 0
L2C WRITEBACK ACCESS:      24733  HIT:      24096  MISS:        637  HIT %:    97.4245  MISS %:    2.57551   MPKI: 0.01274
L2C LOAD TRANSLATION ACCESS:      14847  HIT:      12863  MISS:       1984  HIT %:     86.637  MISS %:     13.363   MPKI: 0.03968
L2C PREFETCH  REQUESTED:    3729967  ISSUED:    2734817  USEFUL:     406833  USELESS:        129
L2C USEFUL LOAD PREFETCHES:     406833 PREFETCH ISSUED TO LOWER LEVEL:    2507344  ACCURACY: 16.2257
L2C TIMELY PREFETCHES:     406833 LATE PREFETCHES: 104900 DROPPED PREFETCHES: 0
L2C PREFETCHES SAME FILL-ORIGIN LEVEL: 511864 DIFFERENT FILL-ORIGIN LEVEL: 1995480
L2C AVERAGE MISS LATENCY: 57.2008 cycles
L2C RQ	ACCESS:    1014449	FORWARD:          0	MERGED:          0	TO_CACHE:    1014449
L2C WQ	ACCESS:      24733	FORWARD:          0	MERGED:          0	TO_CACHE:      24733
L2C PQ	ACCESS:    2734817	FORWARD:          0	MERGED:      24891	TO_CACHE:    2709926

Revised Interactions: positive negative neutral
L2C_interactions 405982 71 385 99.8878 0.0174688 0.0947254
L2C Instructions Evicting Data 0
L2C Translations Evicting Data 1980
L2C Data Evicting Data 949471
L2C Instructions Evicting Instructions 0
L2C Translations Evicting Instructions 0
L2C Data Evicting Instructions 0
L2C Instructions Evicting Translations 0
L2C Translations Evicting Translations 4
L2C Data Evicting Translations 1974
L2C Dense regions hint from L2: 0
PSCL5 TOTAL     ACCESS:      14845  HIT:      14845  MISS:          0  HIT %:        100  MISS %:          0   MPKI: 0
PSCL5 LOAD TRANSLATION ACCESS:      14845  HIT:      14845  MISS:          0  HIT %:        100  MISS %:          0   MPKI: 0
PSCL5 PREFETCH  REQUESTED:          0  ISSUED:          0  USEFUL:          0  USELESS:          0
PSCL5 USEFUL LOAD PREFETCHES:          0 PREFETCH ISSUED TO LOWER LEVEL:          0  ACCURACY: -nan
PSCL5 TIMELY PREFETCHES:          0 LATE PREFETCHES: 0 DROPPED PREFETCHES: 0
PSCL5 PREFETCHES SAME FILL-ORIGIN LEVEL: 0 DIFFERENT FILL-ORIGIN LEVEL: 0

Revised Interactions: positive negative neutral
PSCL5_interactions 0 0 0 -nan -nan -nan
PSCL4 TOTAL     ACCESS:      14845  HIT:      14845  MISS:          0  HIT %:        100  MISS %:          0   MPKI: 0
PSCL4 LOAD TRANSLATION ACCESS:      14845  HIT:      14845  MISS:          0  HIT %:        100  MISS %:          0   MPKI: 0
PSCL4 PREFETCH  REQUESTED:          0  ISSUED:          0  USEFUL:          0  USELESS:          0
PSCL4 USEFUL LOAD PREFETCHES:          0 PREFETCH ISSUED TO LOWER LEVEL:          0  ACCURACY: -nan
PSCL4 TIMELY PREFETCHES:          0 LATE PREFETCHES: 0 DROPPED PREFETCHES: 0
PSCL4 PREFETCHES SAME FILL-ORIGIN LEVEL: 0 DIFFERENT FILL-ORIGIN LEVEL: 0

Revised Interactions: positive negative neutral
PSCL4_interactions 0 0 0 -nan -nan -nan
PSCL3 TOTAL     ACCESS:      14845  HIT:      14845  MISS:          0  HIT %:        100  MISS %:          0   MPKI: 0
PSCL3 LOAD TRANSLATION ACCESS:      14845  HIT:      14845  MISS:          0  HIT %:        100  MISS %:          0   MPKI: 0
PSCL3 PREFETCH  REQUESTED:          0  ISSUED:          0  USEFUL:          0  USELESS:          0
PSCL3 USEFUL LOAD PREFETCHES:          0 PREFETCH ISSUED TO LOWER LEVEL:          0  ACCURACY: -nan
PSCL3 TIMELY PREFETCHES:          0 LATE PREFETCHES: 0 DROPPED PREFETCHES: 0
PSCL3 PREFETCHES SAME FILL-ORIGIN LEVEL: 0 DIFFERENT FILL-ORIGIN LEVEL: 0

Revised Interactions: positive negative neutral
PSCL3_interactions 0 0 0 -nan -nan -nan
PSCL2 TOTAL     ACCESS:      14845  HIT:      14815  MISS:         30  HIT %:    99.7979  MISS %:   0.202088   MPKI: 0.0006
PSCL2 LOAD TRANSLATION ACCESS:      14845  HIT:      14815  MISS:         30  HIT %:    99.7979  MISS %:   0.202088   MPKI: 0.0006
PSCL2 PREFETCH  REQUESTED:          0  ISSUED:          0  USEFUL:          0  USELESS:          0
PSCL2 USEFUL LOAD PREFETCHES:          0 PREFETCH ISSUED TO LOWER LEVEL:          0  ACCURACY: -nan
PSCL2 TIMELY PREFETCHES:          0 LATE PREFETCHES: 0 DROPPED PREFETCHES: 0
PSCL2 PREFETCHES SAME FILL-ORIGIN LEVEL: 0 DIFFERENT FILL-ORIGIN LEVEL: 0

Revised Interactions: positive negative neutral
PSCL2_interactions 0 0 0 -nan -nan -nan
LLC TOTAL     ACCESS:    2639819  HIT:    1686258  MISS:     953561  HIT %:    63.8778  MISS %:    36.1222   MPKI: 19.0712
LLC LOAD      ACCESS:     415221  HIT:     288793  MISS:     126428  HIT %:    69.5516  MISS %:    30.4484   MPKI: 2.52856
LLC RFO       ACCESS:      24362  HIT:          0  MISS:      24362  HIT %:          0  MISS %:        100   MPKI: 0.48724
LLC PREFETCH  ACCESS:    2173878  HIT:    1374478  MISS:     799400  HIT %:     63.227  MISS %:     36.773   MPKI: 15.988
LLC WRITEBACK ACCESS:      24374  HIT:      22893  MISS:       1481  HIT %:    93.9239  MISS %:    6.07615   MPKI: 0.02962
LLC LOAD TRANSLATION ACCESS:       1984  HIT:         94  MISS:       1890  HIT %:     4.7379  MISS %:    95.2621   MPKI: 0.0378
LLC PREFETCH  REQUESTED:          0  ISSUED:          0  USEFUL:     288453  USELESS:     506644
LLC USEFUL LOAD PREFETCHES:     288453 PREFETCH ISSUED TO LOWER LEVEL:     806970  ACCURACY: 35.7452
LLC TIMELY PREFETCHES:     288453 LATE PREFETCHES: 7561 DROPPED PREFETCHES: 0
LLC PREFETCHES SAME FILL-ORIGIN LEVEL: 762772 DIFFERENT FILL-ORIGIN LEVEL: 0
LLC AVERAGE MISS LATENCY: 187.833 cycles
LLC RQ	ACCESS:     441567	FORWARD:          0	MERGED:          0	TO_CACHE:     441567
LLC WQ	ACCESS:      24374	FORWARD:          0	MERGED:          0	TO_CACHE:      24374
LLC PQ	ACCESS:    2507344	FORWARD:          0	MERGED:       3993	TO_CACHE:    2503351

Revised Interactions: positive negative neutral
LLC_interactions 288116 510373 73649 33.0356 58.5198 8.44465
LLC Dense regions hint to LLC: 0

RAW hits: 257319
Loads Generated: 21490026
Loads sent to L1D: 21232707
Stores Generated: 2816714
Stores sent to L1D: 2816717
Major fault: 0 Minor fault: 28540
Allocated PAGES: 28540
 All Calls: 1950504
 Critical Calls: 1950504
------------------
Depth Distribution
------------------
depth 0: 0
depth 1: 1475898
depth 2: 1294762
depth 3: 1183416
depth 4: 828393
depth 5: 21703
depth 6: 3
depth 7: 2
depth 8: 1
depth 9: 1
depth 10: 0
depth 11: 0
depth 12: 0
depth 13: 0
depth 14: 0
depth 15: 0
depth 16: 0
depth 17: 0
depth 18: 0
depth 19: 0
depth 20: 0
depth 21: 0
depth 22: 0
depth 23: 0
depth 24: 0
depth 25: 0
depth 26: 0
depth 27: 0
depth 28: 0
depth 29: 0
Total: 4804179
-----------------------------
-----------------------------
	Captured at Filter
-----------------------------
depth 0: 0
depth 1: 13311
depth 2: 12161
depth 3: 11970
depth 4: 8635
depth 5: 310
depth 6: 0
depth 7: 0
depth 8: 0
depth 9: 0
depth 10: 0
depth 11: 0
depth 12: 0
depth 13: 0
depth 14: 0
depth 15: 0
depth 16: 0
depth 17: 0
depth 18: 0
depth 19: 0
depth 20: 0
depth 21: 0
depth 22: 0
depth 23: 0
depth 24: 0
depth 25: 0
depth 26: 0
depth 27: 0
depth 28: 0
depth 29: 0
-----------------------------
-----------------------------
		Lost at Page
-----------------------------
depth 0: 0
depth 1: 30728
depth 2: 60949
depth 3: 91299
depth 4: 87814
depth 5: 4595
depth 6: 0
depth 7: 0
depth 8: 0
depth 9: 0
depth 10: 0
depth 11: 0
depth 12: 0
depth 13: 0
depth 14: 0
depth 15: 0
depth 16: 0
depth 17: 0
depth 18: 0
depth 19: 0
depth 20: 0
depth 21: 0
depth 22: 0
depth 23: 0
depth 24: 0
depth 25: 0
depth 26: 0
depth 27: 0
depth 28: 0
depth 29: 0
-----------------------------
-----------------------------
	Lost due to PQ Size
-----------------------------
2189518
-----------------------------
ST read accesses: 960800
ST write accesses: 14440
PT read accesses: 24413963
PT write accesses: 1441090
FILTER read accesses: 5684867
FILTER write accesses: 2082391
GHR read accesses: 563165
GHR write accesses: 154121
GHR counter read accesses: 21485604
GHR counter write accesses: 2245828
ST tag read accesses: 382992354
ST tag write accesses: 11624293

DRAM Statistics
 CHANNEL 0
 RQ ROW_BUFFER_HIT:     683789  ROW_BUFFER_MISS:     268293
 DBUS_CONGESTED:        212
 WQ ROW_BUFFER_HIT:        813  ROW_BUFFER_MISS:      23585  FULL:          0

 AVG_CONGESTED_CYCLE: 2
 All warmup complete: 2
Channel 0 Bank busy for read cycles: 0
Channel 0 Bank busy for write cycles: 0
Channel 0
Rank 0
0banks busy for read cycles: 25985352
0banks busy for write cycles: 18037
1banks busy for read cycles: 8493087
1banks busy for write cycles: 2252783
2banks busy for read cycles: 5562814
2banks busy for write cycles: 615999
3banks busy for read cycles: 5044810
3banks busy for write cycles: 127050
4banks busy for read cycles: 3855230
4banks busy for write cycles: 17949
5banks busy for read cycles: 2841630
5banks busy for write cycles: 1740
6banks busy for read cycles: 1198514
6banks busy for write cycles: 145
7banks busy for read cycles: 360009
7banks busy for write cycles: 0
8banks busy for read cycles: 43209
8banks busy for write cycles: 0

CPU 0 Branch Prediction Accuracy: 81.2318% MPKI: 4.68478 Average ROB Occupancy at Mispredict: 65.9186
Branch types
NOT_BRANCH: 48751677 97.5033%
BRANCH_DIRECT_JUMP: 0 0%
BRANCH_INDIRECT: 0 0%
BRANCH_CONDITIONAL: 1248063 2.49613%
BRANCH_DIRECT_CALL: 0 0%
BRANCH_INDIRECT_CALL: 0 0%
BRANCH_RETURN: 0 0%
BRANCH_OTHER: 0 0%

@sumon_overall_L1D         0         0         0         0         0         0         0
@Sumon_Early_by_class_L1D         0         0         0         0
@Sumon_Late_by_class_L1D         0         0         0         0

@Sumon_Early_by_cycle_L1D         0         0         0         0         0         0         0         0         0         0         0         0
@Sumon_Late_by_cycle_L1D         0         0         0         0         0         0
@Sumon_Early_stream_L1D         0         0         0         0         0         0         0         0         0         0         0         0
@Sumon_Early_CS_L1D         0         0         0         0         0         0         0         0         0         0         0         0
@Sumon_Early_CPLX_L1D         0         0         0         0         0         0         0         0         0         0         0         0
@Sumon_Late_stream_L1D         0         0         0         0         0         0
@Sumon_Late_CS_L1D         0         0         0         0         0         0
@Sumon_Late_CPLX_L1D         0         0         0         0         0         0
@sumon_overall_L2C    406833    104900         0       129    406962   2734817   3729967
@Sumon_Early_by_class_L2C         0         0         0         0
@Sumon_Late_by_class_L2C         0         0         0         0

@Sumon_Early_by_cycle_L2C    101178     45583     50737     45891     40744     96016     26680         0         0         0         0         4
@Sumon_Late_by_cycle_L2C     56459     28523      5938      5737      8243         0
@Sumon_Early_stream_L2C         0         0         0         0         0         0         0         0         0         0         0         0
@Sumon_Early_CS_L2C         0         0         0         0         0         0         0         0         0         0         0         0
@Sumon_Early_CPLX_L2C         0         0         0         0         0         0         0         0         0         0         0         0
@Sumon_Late_stream_L2C         0         0         0         0         0         0
@Sumon_Late_CS_L2C         0         0         0         0         0         0
@Sumon_Late_CPLX_L2C         0         0         0         0         0         0
DRAM PAGES: 1048576
Allocated PAGES: 28540
