Initialize SIGNATURE TABLE
ST_SET: 1
ST_WAY: 256
ST_TAG_BIT: 16
ST_TAG_MASK: ffff

Initialize PATTERN TABLE
PT_SET: 512
PT_WAY: 4
SIG_DELTA_BIT: 7
C_SIG_BIT: 4
C_DELTA_BIT: 4

Initialize PREFETCH FILTER
FILTER_SET: 1024

*** ChampSim Multicore Out-of-Order Simulator ***

Warmup Instructions: 50000000
Simulation Instructions: 50000000
Number of CPUs: 1
LLC sets: 2048
LLC ways: 16
Off-chip DRAM Size: 4096 MB Channels: 1 Width: 64-bit Data Rate: 6400 MT/s
CPU 0 runs ../../biswa/SPEC2017Traces/603.bwaves_s-2931B.champsimtrace.xz
.xz
CPU 0 Bimodal branch predictor
BTB has LRU replacement policy
ITLB has LRU replacement policy
DTLB has LRU replacement policy
STLB has LRU replacement policy
L1I has LRU replacement policy
L1D has LRU replacement policy
ST_WAYS: 256
PT_SETS: 512
Initialize DRRIP state for L2C
Initialize DRRIP state for LLC
epoch: 1000
next table: 2502
cur table: 12704
epoch: 1000
next table: 2240
cur table: 2502
epoch: 1000
next table: 2228
cur table: 2240
epoch: 1000
next table: 2375
cur table: 2228
epoch: 1000
next table: 2407
cur table: 2375
epoch: 1000
next table: 2423
cur table: 2407
epoch: 1000
next table: 2370
cur table: 2423
epoch: 1000
next table: 2341
cur table: 2370
epoch: 1000
next table: 2412
cur table: 2341
epoch: 1000
next table: 2420
cur table: 2412
epoch: 1000
next table: 2382
cur table: 2420
epoch: 1000
next table: 2336
cur table: 2382
epoch: 1000
next table: 2325
cur table: 2336
epoch: 1000
next table: 2171
cur table: 2325
epoch: 1000
next table: 2340
cur table: 2171
epoch: 1000
next table: 2350
cur table: 2340
epoch: 1000
next table: 2341
cur table: 2350
epoch: 1000
next table: 2353
cur table: 2341
epoch: 1000
next table: 2396
cur table: 2353
epoch: 1000
next table: 2365
cur table: 2396
epoch: 1000
next table: 2340
cur table: 2365
epoch: 1000
next table: 2338
cur table: 2340
epoch: 1000
next table: 2309
cur table: 2338
epoch: 1000
next table: 2148
cur table: 2309
epoch: 1000
next table: 2337
cur table: 2148
epoch: 1000
next table: 2329
cur table: 2337
epoch: 1000
next table: 2333
cur table: 2329
epoch: 1000
next table: 2069
cur table: 21527
epoch: 1000
next table: 2360
cur table: 2333
epoch: 1000
next table: 1697
cur table: 2069
epoch: 1000
next table: 2377
cur table: 2360
epoch: 1000
next table: 1692
cur table: 1697
epoch: 1000
next table: 2339
cur table: 2377
epoch: 1000
next table: 1649
cur table: 1692
epoch: 1000
next table: 2351
cur table: 2339
epoch: 1000
next table: 1645
cur table: 1649
epoch: 1000
next table: 2346
cur table: 2351
epoch: 1000
next table: 1643
cur table: 1645
epoch: 1000
next table: 2297
cur table: 2346
epoch: 1000
next table: 1638
cur table: 1643
epoch: 1000
next table: 2162
cur table: 2297
epoch: 1000
next table: 1652
cur table: 1638
epoch: 1000
next table: 2347
cur table: 2162
epoch: 1000
next table: 1650
cur table: 1652
epoch: 1000
next table: 2348
cur table: 2347
epoch: 1000
next table: 1630
cur table: 1650
epoch: 1000
next table: 2387
cur table: 2348
epoch: 1000
next table: 1619
cur table: 1630
epoch: 1000
next table: 2374
cur table: 2387
epoch: 1000
next table: 1624
cur table: 1619
epoch: 1000
next table: 2435
cur table: 2374
epoch: 1000
next table: 2382
cur table: 2435
epoch: 1000
next table: 1631
cur table: 1624
epoch: 1000
next table: 2378
cur table: 2382
epoch: 1000
next table: 1665
cur table: 1631
epoch: 1000
next table: 2373
cur table: 2378
epoch: 1000
next table: 1638
cur table: 1665
epoch: 1000
next table: 2404
cur table: 2373
epoch: 1000
next table: 1636
cur table: 1638
epoch: 1000
next table: 2346
cur table: 2404
epoch: 1000
next table: 1633
cur table: 1636
epoch: 1000
next table: 2235
cur table: 2346
epoch: 1000
next table: 1636
cur table: 1633
epoch: 1000
next table: 2267
cur table: 2235
epoch: 1000
next table: 1655
cur table: 1636
epoch: 1000
next table: 2348
cur table: 2267
epoch: 1000
next table: 1637
cur table: 1655
epoch: 1000
next table: 2369
cur table: 2348
epoch: 1000
next table: 1644
cur table: 1637
epoch: 1000
next table: 2365
cur table: 2369
epoch: 1000
next table: 1646
cur table: 1644
epoch: 1000
next table: 2324
cur table: 2365
epoch: 1000
next table: 1641
cur table: 1646
epoch: 1000
next table: 2342
cur table: 2324
epoch: 1000
next table: 1653
cur table: 1641
epoch: 1000
next table: 2358
cur table: 2342
epoch: 1000
next table: 2394
cur table: 2358
epoch: 1000
next table: 1646
cur table: 1653
epoch: 1000
next table: 2279
cur table: 2394
epoch: 1000
next table: 1644
cur table: 1646
epoch: 1000
next table: 2201
cur table: 2279
epoch: 1000
next table: 1640
cur table: 1644
epoch: 1000
next table: 2283
cur table: 2201
epoch: 1000
next table: 1645
cur table: 1640
epoch: 1000
next table: 2328
cur table: 2283
epoch: 1000
next table: 1660
cur table: 1645
epoch: 1000
next table: 2332
cur table: 2328
epoch: 1000
next table: 1626
cur table: 1660
epoch: 1000
next table: 2375
cur table: 2332
epoch: 1000
next table: 1633
cur table: 1626
epoch: 1000
next table: 2316
cur table: 2375
epoch: 1000
next table: 1629
cur table: 1633
epoch: 1000
next table: 2323
cur table: 2316
epoch: 1000
next table: 1638
cur table: 1629
epoch: 1000
next table: 2344
cur table: 2323
epoch: 1000
next table: 1623
cur table: 1638
epoch: 1000
next table: 2324
cur table: 2344
epoch: 1000
next table: 1648
cur table: 1623
epoch: 1000
next table: 2313
cur table: 2324
epoch: 1000
next table: 2222
cur table: 2313
epoch: 1000
next table: 1674
cur table: 1648
epoch: 1000
next table: 2304
cur table: 2222
epoch: 1000
next table: 1642
cur table: 1674
epoch: 1000
next table: 2336
cur table: 2304
epoch: 1000
next table: 1641
cur table: 1642
epoch: 1000
next table: 2327
cur table: 2336
epoch: 1000
next table: 1639
cur table: 1641
epoch: 1000
next table: 2386
cur table: 2327
epoch: 1000
next table: 1639
cur table: 1639
epoch: 1000
next table: 2342
cur table: 2386
epoch: 1000
next table: 1656
cur table: 1639
epoch: 1000
next table: 2363
cur table: 2342
epoch: 1000
next table: 1630
cur table: 1656
epoch: 1000
next table: 2307
cur table: 2363
epoch: 1000
next table: 1628
cur table: 1630
epoch: 1000
next table: 2344
cur table: 2307
epoch: 1000
next table: 1634
cur table: 1628
epoch: 1000
next table: 2142
cur table: 2344
epoch: 1000
next table: 1648
cur table: 1634
epoch: 1000
next table: 2309
cur table: 2142
epoch: 1000
next table: 1660
cur table: 1648
epoch: 1000
next table: 2336
cur table: 2309
epoch: 1000
next table: 2313
cur table: 2336
epoch: 1000
next table: 1646
cur table: 1660
epoch: 1000
next table: 2373
cur table: 2313
epoch: 1000
next table: 1648
cur table: 1646
epoch: 1000
next table: 2351
cur table: 2373
epoch: 1000
next table: 1650
cur table: 1648
epoch: 1000
next table: 2310
cur table: 2351
epoch: 1000
next table: 1638
cur table: 1650
epoch: 1000
next table: 2344
cur table: 2310
epoch: 1000
next table: 1648
cur table: 1638
epoch: 1000
next table: 2372
cur table: 2344
epoch: 1000
next table: 1638
cur table: 1648
epoch: 1000
next table: 2197
cur table: 2372
epoch: 1000
next table: 1654
cur table: 1638
epoch: 1000
next table: 2346
cur table: 2197
epoch: 1000
next table: 1635
cur table: 1654
epoch: 1000
next table: 2347
cur table: 2346
epoch: 1000
next table: 1626
cur table: 1635
epoch: 1000
next table: 2341
cur table: 2347
epoch: 1000
next table: 1636
cur table: 1626
epoch: 1000
next table: 2373
cur table: 2341
epoch: 1000
next table: 1654
cur table: 1636
epoch: 1000
next table: 2356
cur table: 2373
epoch: 1000
next table: 1620
cur table: 1654
epoch: 1000
next table: 2378
cur table: 2356
epoch: 1000
next table: 1648
cur table: 1620
epoch: 1000
next table: 2348
cur table: 2378
epoch: 1000
next table: 2358
cur table: 2348
epoch: 1000
next table: 1629
cur table: 1648
epoch: 1000
next table: 2295
cur table: 2358
epoch: 1000
next table: 1647
cur table: 1629
epoch: 1000
next table: 2270
cur table: 2295
epoch: 1000
next table: 1643
cur table: 1647
epoch: 1000
next table: 2187
cur table: 2270
epoch: 1000
next table: 1650
cur table: 1643
epoch: 1000
next table: 2322
cur table: 2187
epoch: 1000
next table: 1630
cur table: 1650
epoch: 1000
next table: 2340
cur table: 2322
epoch: 1000
next table: 1639
cur table: 1630
epoch: 1000
next table: 2327
cur table: 2340
epoch: 1000
next table: 1637
cur table: 1639
epoch: 1000
next table: 2368
cur table: 2327
epoch: 1000
next table: 1654
cur table: 1637
epoch: 1000
next table: 2377
cur table: 2368
epoch: 1000
next table: 1642
cur table: 1654
epoch: 1000
next table: 2364
cur table: 2377
epoch: 1000
next table: 1635
cur table: 1642
epoch: 1000
next table: 2354
cur table: 2364
epoch: 1000
next table: 1624
cur table: 1635
epoch: 1000
next table: 2313
cur table: 2354
epoch: 1000
next table: 2185
cur table: 2313
epoch: 1000
next table: 1634
cur table: 1624
epoch: 1000
next table: 2328
cur table: 2185
epoch: 1000
next table: 1665
cur table: 1634
epoch: 1000
next table: 2331
cur table: 2328
epoch: 1000
next table: 1653
cur table: 1665
epoch: 1000
next table: 2337
cur table: 2331
epoch: 1000
next table: 1657
cur table: 1653
epoch: 1000
next table: 2362
cur table: 2337
epoch: 1000
next table: 1639
cur table: 1657
epoch: 1000
next table: 2390
cur table: 2362
epoch: 1000
next table: 1645
cur table: 1639
epoch: 1000
next table: 2360
cur table: 2390
epoch: 1000
next table: 1639
cur table: 1645
epoch: 1000
next table: 2317
cur table: 2360
epoch: 1000
next table: 1621
cur table: 1639
epoch: 1000
next table: 2324
cur table: 2317
epoch: 1000
next table: 1642
cur table: 1621
epoch: 1000
next table: 2358
cur table: 2324
epoch: 1000
next table: 1632
cur table: 1642
epoch: 1000
next table: 2181
cur table: 2358
epoch: 1000
next table: 1635
cur table: 1632
epoch: 1000
next table: 2362
cur table: 2181
epoch: 1000
next table: 1634
cur table: 1635
epoch: 1000
next table: 2332
cur table: 2362
epoch: 1000
next table: 2334
cur table: 2332
epoch: 1000
next table: 1630
cur table: 1634
epoch: 1000
next table: 2368
cur table: 2334
epoch: 1000
next table: 1658
cur table: 1630
epoch: 1000
next table: 2394
cur table: 2368
epoch: 1000
next table: 1644
cur table: 1658
epoch: 1000
next table: 2333
cur table: 2394
epoch: 1000
next table: 1647
cur table: 1644
epoch: 1000
next table: 2346
cur table: 2333
epoch: 1000
next table: 1639
cur table: 1647
epoch: 1000
next table: 2324
cur table: 2346
epoch: 1000
next table: 1646
cur table: 1639
epoch: 1000
next table: 2284
cur table: 2324
epoch: 1000
next table: 1649
cur table: 1646
epoch: 1000
next table: 2198
cur table: 2284
epoch: 1000
next table: 1646
cur table: 1649
epoch: 1000
next table: 2336
cur table: 2198
epoch: 1000
next table: 1629
cur table: 1646
epoch: 1000
next table: 2353
cur table: 2336
epoch: 1000
next table: 1652
cur table: 1629
epoch: 1000
next table: 2348
cur table: 2353
epoch: 1000
next table: 1637
cur table: 1652
epoch: 1000
next table: 2307
cur table: 2348
epoch: 1000
next table: 2327
cur table: 2307
epoch: 1000
next table: 1645
cur table: 1637
epoch: 1000
next table: 2360
cur table: 2327
epoch: 1000
next table: 1641
cur table: 1645
epoch: 1000
next table: 2347
cur table: 2360
epoch: 1000
next table: 1628
cur table: 1641
epoch: 1000
next table: 2276
cur table: 2347
epoch: 1000
next table: 1637
cur table: 1628
epoch: 1000
next table: 2145
cur table: 2276
epoch: 1000
next table: 1642
cur table: 1637
epoch: 1000
next table: 2341
cur table: 2145
epoch: 1000
next table: 1637
cur table: 1642
epoch: 1000
next table: 2386
cur table: 2341
epoch: 1000
next table: 1644
cur table: 1637
epoch: 1000
next table: 2349
cur table: 2386
epoch: 1000
next table: 1671
cur table: 1644
epoch: 1000
next table: 2335
cur table: 2349
epoch: 1000
next table: 1628
cur table: 1671
epoch: 1000
next table: 2359
cur table: 2335
epoch: 1000
next table: 1637
cur table: 1628
epoch: 1000
next table: 2361
cur table: 2359
Heartbeat CPU 0 instructions: 10000003 cycles: 2948062 heartbeat IPC: 3.39206 cumulative IPC: 3.39206 (Simulation time: 0 hr 2 min 43 sec) 
epoch: 1000
next table: 1639
cur table: 1637
epoch: 1000
next table: 2336
cur table: 2361
epoch: 1000
next table: 2296
cur table: 2336
epoch: 1000
next table: 1639
cur table: 1639
epoch: 1000
next table: 2148
cur table: 2296
epoch: 1000
next table: 1664
cur table: 1639
epoch: 1000
next table: 2323
cur table: 2148
epoch: 1000
next table: 1639
cur table: 1664
epoch: 1000
next table: 2385
cur table: 2323
epoch: 1000
next table: 1634
cur table: 1639
epoch: 1000
next table: 2342
cur table: 2385
epoch: 1000
next table: 1632
cur table: 1634
epoch: 1000
next table: 2360
cur table: 2342
epoch: 1000
next table: 1634
cur table: 1632
epoch: 1000
next table: 2390
cur table: 2360
epoch: 1000
next table: 1644
cur table: 1634
epoch: 1000
next table: 2421
cur table: 2390
epoch: 1000
next table: 1649
cur table: 1644
epoch: 1000
next table: 2395
cur table: 2421
epoch: 1000
next table: 1645
cur table: 1649
epoch: 1000
next table: 2349
cur table: 2395
epoch: 1000
next table: 1632
cur table: 1645
epoch: 1000
next table: 2342
cur table: 2349
epoch: 1000
next table: 1643
cur table: 1632
epoch: 1000
next table: 2255
cur table: 2342
epoch: 1000
next table: 1633
cur table: 1643
epoch: 1000
next table: 2233
cur table: 2255
epoch: 1000
next table: 1638
cur table: 1633
epoch: 1000
next table: 2380
cur table: 2233
epoch: 1000
next table: 1626
cur table: 1638
epoch: 1000
next table: 2361
cur table: 2380
epoch: 1000
next table: 2342
cur table: 2361
epoch: 1000
next table: 1630
cur table: 1626
epoch: 1000
next table: 2369
cur table: 2342
epoch: 1000
next table: 1634
cur table: 1630
epoch: 1000
next table: 2378
cur table: 2369
epoch: 1000
next table: 1649
cur table: 1634
epoch: 1000
next table: 2385
cur table: 2378
epoch: 1000
next table: 1669
cur table: 1649
epoch: 1000
next table: 2355
cur table: 2385
epoch: 1000
next table: 1633
cur table: 1669
epoch: 1000
next table: 2372
cur table: 2355
epoch: 1000
next table: 1635
cur table: 1633
epoch: 1000
next table: 2306
cur table: 2372
epoch: 1000
next table: 1635
cur table: 1635
epoch: 1000
next table: 2384
cur table: 2306
epoch: 1000
next table: 1633
cur table: 1635
epoch: 1000
next table: 2153
cur table: 2384
epoch: 1000
next table: 1629
cur table: 1633
epoch: 1000
next table: 2336
cur table: 2153
epoch: 1000
next table: 1630
cur table: 1629
epoch: 1000
next table: 2347
cur table: 2336
epoch: 1000
next table: 1643
cur table: 1630
epoch: 1000
next table: 2335
cur table: 2347
epoch: 1000
next table: 1646
cur table: 1643
epoch: 1000
next table: 2372
cur table: 2335
epoch: 1000
next table: 1636
cur table: 1646
epoch: 1000
next table: 2348
cur table: 2372
epoch: 1000
next table: 2345
cur table: 2348
epoch: 1000
next table: 1629
cur table: 1636
epoch: 1000
next table: 2350
cur table: 2345
epoch: 1000
next table: 1658
cur table: 1629
epoch: 1000
next table: 2375
cur table: 2350
epoch: 1000
next table: 1634
cur table: 1658
epoch: 1000
next table: 2290
cur table: 2375
epoch: 1000
next table: 1640
cur table: 1634
epoch: 1000
next table: 2211
cur table: 2290
epoch: 1000
next table: 1646
cur table: 1640
epoch: 1000
next table: 2331
cur table: 2211
epoch: 1000
next table: 1633
cur table: 1646
epoch: 1000
next table: 2338
cur table: 2331
epoch: 1000
next table: 1643
cur table: 1633
epoch: 1000
next table: 2413
cur table: 2338
epoch: 1000
next table: 1646
cur table: 1643
epoch: 1000
next table: 2379
cur table: 2413
epoch: 1000
next table: 1626
cur table: 1646
epoch: 1000
next table: 2340
cur table: 2379
epoch: 1000
next table: 1637
cur table: 1626
epoch: 1000
next table: 2328
cur table: 2340
epoch: 1000
next table: 1634
cur table: 1637
epoch: 1000
next table: 2376
cur table: 2328
epoch: 1000
next table: 2305
cur table: 2376
epoch: 1000
next table: 1629
cur table: 1634
epoch: 1000
next table: 2197
cur table: 2305
epoch: 1000
next table: 1651
cur table: 1629
epoch: 1000
next table: 2290
cur table: 2197
epoch: 1000
next table: 1644
cur table: 1651
epoch: 1000
next table: 2341
cur table: 2290
epoch: 1000
next table: 1632
cur table: 1644
epoch: 1000
next table: 2370
cur table: 2341
epoch: 1000
next table: 1629
cur table: 1632
epoch: 1000
next table: 2356
cur table: 2370
epoch: 1000
next table: 1646
cur table: 1629
epoch: 1000
next table: 2351
cur table: 2356
epoch: 1000
next table: 1641
cur table: 1646
epoch: 1000
next table: 2339
cur table: 2351
epoch: 1000
next table: 1625
cur table: 1641
epoch: 1000
next table: 2335
cur table: 2339
epoch: 1000
next table: 1641
cur table: 1625
epoch: 1000
next table: 2338
cur table: 2335
epoch: 1000
next table: 1642
cur table: 1641
epoch: 1000
next table: 2309
cur table: 2338
epoch: 1000
next table: 1630
cur table: 1642
epoch: 1000
next table: 2159
cur table: 2309
epoch: 1000
next table: 1642
cur table: 1630
epoch: 1000
next table: 2347
cur table: 2159
epoch: 1000
next table: 2329
cur table: 2347
epoch: 1000
next table: 1644
cur table: 1642
epoch: 1000
next table: 2348
cur table: 2329
epoch: 1000
next table: 1634
cur table: 1644
epoch: 1000
next table: 2354
cur table: 2348
epoch: 1000
next table: 1639
cur table: 1634
epoch: 1000
next table: 2344
cur table: 2354
epoch: 1000
next table: 1636
cur table: 1639
epoch: 1000
next table: 2361
cur table: 2344
epoch: 1000
next table: 1629
cur table: 1636
epoch: 1000
next table: 2323
cur table: 2361
epoch: 1000
next table: 1659
cur table: 1629
epoch: 1000
next table: 2388
cur table: 2323
epoch: 1000
next table: 1639
cur table: 1659
epoch: 1000
next table: 2327
cur table: 2388
epoch: 1000
next table: 1622
cur table: 1639
epoch: 1000
next table: 2167
cur table: 2327
epoch: 1000
next table: 1637
cur table: 1622
epoch: 1000
next table: 2335
cur table: 2167
epoch: 1000
next table: 1636
cur table: 1637
epoch: 1000
next table: 2327
cur table: 2335
epoch: 1000
next table: 1640
cur table: 1636
epoch: 1000
next table: 2347
cur table: 2327
epoch: 1000
next table: 1664
cur table: 1640
epoch: 1000
next table: 2397
cur table: 2347
epoch: 1000
next table: 2365
cur table: 2397
epoch: 1000
next table: 1629
cur table: 1664
epoch: 1000
next table: 2370
cur table: 2365
epoch: 1000
next table: 1624
cur table: 1629
epoch: 1000
next table: 2406
cur table: 2370
epoch: 1000
next table: 1626
cur table: 1624
epoch: 1000
next table: 2431
cur table: 2406
epoch: 1000
next table: 1624
cur table: 1626
epoch: 1000
next table: 2464
cur table: 2431
epoch: 1000
next table: 1632
cur table: 1624
epoch: 1000
next table: 2324
cur table: 2464
epoch: 1000
next table: 1622
cur table: 1632
epoch: 1000
next table: 2328
cur table: 2324
epoch: 1000
next table: 1620
cur table: 1622
epoch: 1000
next table: 2246
cur table: 2328
epoch: 1000
next table: 1633
cur table: 1620
epoch: 1000
next table: 2368
cur table: 2246
epoch: 1000
next table: 1628
cur table: 1633
epoch: 1000
next table: 2353
cur table: 2368
epoch: 1000
next table: 1639
cur table: 1628
epoch: 1000
next table: 2342
cur table: 2353
epoch: 1000
next table: 1637
cur table: 1639
epoch: 1000
next table: 2351
cur table: 2342
epoch: 1000
next table: 1620
cur table: 1637
epoch: 1000
next table: 2379
cur table: 2351
epoch: 1000
next table: 1629
cur table: 1620
epoch: 1000
next table: 2354
cur table: 2379
epoch: 1000
next table: 1637
cur table: 1629
epoch: 1000
next table: 2310
cur table: 2354
epoch: 1000
next table: 1654
cur table: 1637
epoch: 1000
next table: 2329
cur table: 2310
epoch: 1000
next table: 2309
cur table: 2329
epoch: 1000
next table: 1649
cur table: 1654
epoch: 1000
next table: 2142
cur table: 2309
epoch: 1000
next table: 1644
cur table: 1649
epoch: 1000
next table: 2315
cur table: 2142
epoch: 1000
next table: 1649
cur table: 1644
epoch: 1000
next table: 2329
cur table: 2315
epoch: 1000
next table: 1642
cur table: 1649
epoch: 1000
next table: 2347
cur table: 2329
epoch: 1000
next table: 1632
cur table: 1642
epoch: 1000
next table: 2354
cur table: 2347
epoch: 1000
next table: 1627
cur table: 1632
epoch: 1000
next table: 2366
cur table: 2354
epoch: 1000
next table: 1648
cur table: 1627
epoch: 1000
next table: 2340
cur table: 2366
epoch: 1000
next table: 1644
cur table: 1648
epoch: 1000
next table: 2400
cur table: 2340
epoch: 1000
next table: 1633
cur table: 1644
epoch: 1000
next table: 2296
cur table: 2400
epoch: 1000
next table: 1633
cur table: 1633
epoch: 1000
next table: 2313
cur table: 2296
epoch: 1000
next table: 1633
cur table: 1633
epoch: 1000
next table: 2193
cur table: 2313
epoch: 1000
next table: 1660
cur table: 1633
epoch: 1000
next table: 2360
cur table: 2193
epoch: 1000
next table: 2391
cur table: 2360
epoch: 1000
next table: 1630
cur table: 1660
epoch: 1000
next table: 2345
cur table: 2391
epoch: 1000
next table: 1645
cur table: 1630
epoch: 1000
next table: 2326
cur table: 2345
epoch: 1000
next table: 1649
cur table: 1645
epoch: 1000
next table: 2355
cur table: 2326
epoch: 1000
next table: 1641
cur table: 1649
epoch: 1000
next table: 2375
cur table: 2355
epoch: 1000
next table: 1655
cur table: 1641
epoch: 1000
next table: 2376
cur table: 2375
epoch: 1000
next table: 1645
cur table: 1655
epoch: 1000
next table: 2268
cur table: 2376
epoch: 1000
next table: 1647
cur table: 1645
epoch: 1000
next table: 2166
cur table: 2268
epoch: 1000
next table: 1639
cur table: 1647
epoch: 1000
next table: 2311
cur table: 2166
epoch: 1000
next table: 1640
cur table: 1639
epoch: 1000
next table: 2360
cur table: 2311
epoch: 1000
next table: 1637
cur table: 1640
epoch: 1000
next table: 2370
cur table: 2360
epoch: 1000
next table: 1653
cur table: 1637
epoch: 1000
next table: 2336
cur table: 2370
epoch: 1000
next table: 2339
cur table: 2336
epoch: 1000
next table: 1632
cur table: 1653
epoch: 1000
next table: 2367
cur table: 2339
epoch: 1000
next table: 1634
cur table: 1632
epoch: 1000
next table: 2348
cur table: 2367
epoch: 1000
next table: 1651
cur table: 1634
epoch: 1000
next table: 2293
cur table: 2348
epoch: 1000
next table: 1643
cur table: 1651
epoch: 1000
next table: 2268
cur table: 2293
epoch: 1000
next table: 1647
cur table: 1643
epoch: 1000
next table: 2219
cur table: 2268
epoch: 1000
next table: 1641
cur table: 1647
epoch: 1000
next table: 2340
cur table: 2219
epoch: 1000
next table: 1645
cur table: 1641
epoch: 1000
next table: 2311
cur table: 2340
epoch: 1000
next table: 1644
cur table: 1645
epoch: 1000
next table: 2330
cur table: 2311
epoch: 1000
next table: 1659
cur table: 1644
epoch: 1000
next table: 2315
cur table: 2330
epoch: 1000
next table: 1655
cur table: 1659
epoch: 1000
next table: 2329
cur table: 2315
epoch: 1000
next table: 2321
cur table: 2329
epoch: 1000
next table: 1665
cur table: 1655
epoch: 1000
next table: 2274
cur table: 2321
epoch: 1000
next table: 1645
cur table: 1665
epoch: 1000
next table: 2141
cur table: 2274
epoch: 1000
next table: 1646
cur table: 1645
epoch: 1000
next table: 2341
cur table: 2141
epoch: 1000
next table: 1631
cur table: 1646
epoch: 1000
next table: 2310
cur table: 2341
epoch: 1000
next table: 1646
cur table: 1631
epoch: 1000
next table: 2354
cur table: 2310
epoch: 1000
next table: 1642
cur table: 1646
epoch: 1000
next table: 2371
cur table: 2354
epoch: 1000
next table: 1638
cur table: 1642
epoch: 1000
next table: 2379
cur table: 2371
epoch: 1000
next table: 1632
cur table: 1638
epoch: 1000
next table: 2369
cur table: 2379
epoch: 1000
next table: 1627
cur table: 1632
epoch: 1000
next table: 2348
cur table: 2369
epoch: 1000
next table: 1629
cur table: 1627
epoch: 1000
next table: 2351
cur table: 2348
epoch: 1000
next table: 1663
cur table: 1629
epoch: 1000
next table: 2355
cur table: 2351
epoch: 1000
next table: 1637
cur table: 1663
epoch: 1000
next table: 2207
cur table: 2355
epoch: 1000
next table: 2333
cur table: 2207
epoch: 1000
next table: 1651
cur table: 1637
epoch: 1000
next table: 2355
cur table: 2333
epoch: 1000
next table: 1627
cur table: 1651
epoch: 1000
next table: 2433
cur table: 2355
epoch: 1000
next table: 1624
cur table: 1627
epoch: 1000
next table: 2409
cur table: 2433
epoch: 1000
next table: 1611
cur table: 1624
epoch: 1000
next table: 2418
cur table: 2409
epoch: 1000
next table: 1639
cur table: 1611
epoch: 1000
next table: 2368
cur table: 2418
epoch: 1000
next table: 1636
cur table: 1639
epoch: 1000
next table: 2379
cur table: 2368
epoch: 1000
next table: 1645
cur table: 1636
epoch: 1000
next table: 2362
cur table: 2379
epoch: 1000
next table: 1643
cur table: 1645
epoch: 1000
next table: 2339
cur table: 2362
epoch: 1000
next table: 1641
cur table: 1643
epoch: 1000
next table: 2310
cur table: 2339
epoch: 1000
next table: 1650
cur table: 1641
epoch: 1000
next table: 2286
cur table: 2310
epoch: 1000
next table: 1645
cur table: 1650
epoch: 1000
next table: 2242
cur table: 2286
epoch: 1000
next table: 1641
cur table: 1645
epoch: 1000
next table: 2339
cur table: 2242
epoch: 1000
next table: 1653
cur table: 1641
epoch: 1000
next table: 2366
cur table: 2339
epoch: 1000
next table: 1651
cur table: 1653
epoch: 1000
next table: 2353
cur table: 2366
Heartbeat CPU 0 instructions: 20000003 cycles: 5895742 heartbeat IPC: 3.3925 cumulative IPC: 3.39228 (Simulation time: 0 hr 5 min 25 sec) 
epoch: 1000
next table: 1647
cur table: 1651
epoch: 1000
next table: 2380
cur table: 2353
epoch: 1000
next table: 1617
cur table: 1647
epoch: 1000
next table: 2301
cur table: 2380
epoch: 1000
next table: 1598
cur table: 1617
epoch: 1000
next table: 2305
cur table: 2301
epoch: 1000
next table: 1599
cur table: 1598
epoch: 1000
next table: 2279
cur table: 2305
epoch: 1000
next table: 1585
cur table: 1599
epoch: 1000
next table: 2138
cur table: 2279
epoch: 1000
next table: 2265
cur table: 2138
epoch: 1000
next table: 1586
cur table: 1585
epoch: 1000
next table: 2318
cur table: 2265
epoch: 1000
next table: 1599
cur table: 1586
epoch: 1000
next table: 2346
cur table: 2318
epoch: 1000
next table: 1609
cur table: 1599
epoch: 1000
next table: 2365
cur table: 2346
epoch: 1000
next table: 1582
cur table: 1609
epoch: 1000
next table: 2367
cur table: 2365
epoch: 1000
next table: 1593
cur table: 1582
epoch: 1000
next table: 2374
cur table: 2367
epoch: 1000
next table: 1596
cur table: 1593
epoch: 1000
next table: 2377
cur table: 2374
epoch: 1000
next table: 1614
cur table: 1596
epoch: 1000
next table: 2298
cur table: 2377
epoch: 1000
next table: 1613
cur table: 1614
epoch: 1000
next table: 2336
cur table: 2298
epoch: 1000
next table: 1625
cur table: 1613
epoch: 1000
next table: 2242
cur table: 2336
epoch: 1000
next table: 1627
cur table: 1625
epoch: 1000
next table: 2347
cur table: 2242
epoch: 1000
next table: 1636
cur table: 1627
epoch: 1000
next table: 2405
cur table: 2347
epoch: 1000
next table: 1635
cur table: 1636
epoch: 1000
next table: 2382
cur table: 2405
epoch: 1000
next table: 1627
cur table: 1635
epoch: 1000
next table: 2393
cur table: 2382
epoch: 1000
next table: 1639
cur table: 1627
epoch: 1000
next table: 2395
cur table: 2393
epoch: 1000
next table: 1625
cur table: 1639
epoch: 1000
next table: 2402
cur table: 2395
epoch: 1000
next table: 1635
cur table: 1625
epoch: 1000
next table: 2363
cur table: 2402
epoch: 1000
next table: 1628
cur table: 1635
epoch: 1000
next table: 2360
cur table: 2363
epoch: 1000
next table: 1640
cur table: 1628
epoch: 1000
next table: 2365
cur table: 2360
epoch: 1000
next table: 1661
cur table: 1640
epoch: 1000
next table: 2410
cur table: 2365
epoch: 1000
next table: 1661
cur table: 1661
epoch: 1000
next table: 2281
cur table: 2410
epoch: 1000
next table: 1645
cur table: 1661
epoch: 1000
next table: 2185
cur table: 2281
epoch: 1000
next table: 2296
cur table: 2185
epoch: 1000
next table: 1642
cur table: 1645
epoch: 1000
next table: 2365
cur table: 2296
epoch: 1000
next table: 1632
cur table: 1642
epoch: 1000
next table: 2356
cur table: 2365
epoch: 1000
next table: 1643
cur table: 1632
epoch: 1000
next table: 2378
cur table: 2356
epoch: 1000
next table: 1639
cur table: 1643
epoch: 1000
next table: 2324
cur table: 2378
epoch: 1000
next table: 1626
cur table: 1639
epoch: 1000
next table: 2367
cur table: 2324
epoch: 1000
next table: 1637
cur table: 1626
epoch: 1000
next table: 2353
cur table: 2367
epoch: 1000
next table: 1636
cur table: 1637
epoch: 1000
next table: 2294
cur table: 2353
epoch: 1000
next table: 1631
cur table: 1636
epoch: 1000
next table: 2203
cur table: 2294
epoch: 1000
next table: 1657
cur table: 1631
epoch: 1000
next table: 2270
cur table: 2203
epoch: 1000
next table: 1636
cur table: 1657
epoch: 1000
next table: 2329
cur table: 2270
epoch: 1000
next table: 1641
cur table: 1636
epoch: 1000
next table: 2346
cur table: 2329
epoch: 1000
next table: 2330
cur table: 2346
epoch: 1000
next table: 1655
cur table: 1641
epoch: 1000
next table: 2352
cur table: 2330
epoch: 1000
next table: 1649
cur table: 1655
epoch: 1000
next table: 2323
cur table: 2352
epoch: 1000
next table: 1670
cur table: 1649
epoch: 1000
next table: 2357
cur table: 2323
epoch: 1000
next table: 1642
cur table: 1670
epoch: 1000
next table: 2269
cur table: 2357
epoch: 1000
next table: 1646
cur table: 1642
epoch: 1000
next table: 2139
cur table: 2269
epoch: 1000
next table: 1642
cur table: 1646
epoch: 1000
next table: 2328
cur table: 2139
epoch: 1000
next table: 1643
cur table: 1642
epoch: 1000
next table: 2348
cur table: 2328
epoch: 1000
next table: 1643
cur table: 1643
epoch: 1000
next table: 2342
cur table: 2348
epoch: 1000
next table: 1658
cur table: 1643
epoch: 1000
next table: 2339
cur table: 2342
epoch: 1000
next table: 1647
cur table: 1658
epoch: 1000
next table: 2340
cur table: 2339
epoch: 1000
next table: 2336
cur table: 2340
epoch: 1000
next table: 1628
cur table: 1647
epoch: 1000
next table: 2325
cur table: 2336
epoch: 1000
next table: 1647
cur table: 1628
epoch: 1000
next table: 2314
cur table: 2325
epoch: 1000
next table: 1632
cur table: 1647
epoch: 1000
next table: 2171
cur table: 2314
epoch: 1000
next table: 1655
cur table: 1632
epoch: 1000
next table: 2322
cur table: 2171
epoch: 1000
next table: 1625
cur table: 1655
epoch: 1000
next table: 2378
cur table: 2322
epoch: 1000
next table: 1635
cur table: 1625
epoch: 1000
next table: 2362
cur table: 2378
epoch: 1000
next table: 1635
cur table: 1635
epoch: 1000
next table: 2340
cur table: 2362
epoch: 1000
next table: 1643
cur table: 1635
epoch: 1000
next table: 2397
cur table: 2340
epoch: 1000
next table: 1641
cur table: 1643
epoch: 1000
next table: 2364
cur table: 2397
epoch: 1000
next table: 1640
cur table: 1641
epoch: 1000
next table: 2388
cur table: 2364
epoch: 1000
next table: 1631
cur table: 1640
epoch: 1000
next table: 2339
cur table: 2388
epoch: 1000
next table: 1652
cur table: 1631
epoch: 1000
next table: 2336
cur table: 2339
epoch: 1000
next table: 1628
cur table: 1652
epoch: 1000
next table: 2180
cur table: 2336
epoch: 1000
next table: 2294
cur table: 2180
epoch: 1000
next table: 1652
cur table: 1628
epoch: 1000
next table: 2356
cur table: 2294
epoch: 1000
next table: 1664
cur table: 1652
epoch: 1000
next table: 2342
cur table: 2356
epoch: 1000
next table: 1642
cur table: 1664
epoch: 1000
next table: 2345
cur table: 2342
epoch: 1000
next table: 1644
cur table: 1642
epoch: 1000
next table: 2317
cur table: 2345
epoch: 1000
next table: 1638
cur table: 1644
epoch: 1000
next table: 2311
cur table: 2317
epoch: 1000
next table: 1651
cur table: 1638
epoch: 1000
next table: 2328
cur table: 2311
epoch: 1000
next table: 1638
cur table: 1651
epoch: 1000
next table: 2337
cur table: 2328
epoch: 1000
next table: 1645
cur table: 1638
epoch: 1000
next table: 2212
cur table: 2337
epoch: 1000
next table: 1636
cur table: 1645
epoch: 1000
next table: 2268
cur table: 2212
epoch: 1000
next table: 1636
cur table: 1636
epoch: 1000
next table: 2336
cur table: 2268
epoch: 1000
next table: 1639
cur table: 1636
epoch: 1000
next table: 2359
cur table: 2336
epoch: 1000
next table: 2361
cur table: 2359
epoch: 1000
next table: 1636
cur table: 1639
epoch: 1000
next table: 2337
cur table: 2361
epoch: 1000
next table: 1671
cur table: 1636
epoch: 1000
next table: 2384
cur table: 2337
epoch: 1000
next table: 1631
cur table: 1671
epoch: 1000
next table: 2428
cur table: 2384
epoch: 1000
next table: 1620
cur table: 1631
epoch: 1000
next table: 2397
cur table: 2428
epoch: 1000
next table: 1630
cur table: 1620
epoch: 1000
next table: 2327
cur table: 2397
epoch: 1000
next table: 1637
cur table: 1630
epoch: 1000
next table: 2330
cur table: 2327
epoch: 1000
next table: 1634
cur table: 1637
epoch: 1000
next table: 2281
cur table: 2330
epoch: 1000
next table: 1653
cur table: 1634
epoch: 1000
next table: 2270
cur table: 2281
epoch: 1000
next table: 1633
cur table: 1653
epoch: 1000
next table: 2347
cur table: 2270
epoch: 1000
next table: 1644
cur table: 1633
epoch: 1000
next table: 2330
cur table: 2347
epoch: 1000
next table: 1637
cur table: 1644
epoch: 1000
next table: 2349
cur table: 2330
epoch: 1000
next table: 1637
cur table: 1637
epoch: 1000
next table: 2374
cur table: 2349
epoch: 1000
next table: 1668
cur table: 1637
epoch: 1000
next table: 2362
cur table: 2374
epoch: 1000
next table: 2316
cur table: 2362
epoch: 1000
next table: 1649
cur table: 1668
epoch: 1000
next table: 2303
cur table: 2316
epoch: 1000
next table: 1644
cur table: 1649
epoch: 1000
next table: 2279
cur table: 2303
epoch: 1000
next table: 1645
cur table: 1644
epoch: 1000
next table: 2248
cur table: 2279
epoch: 1000
next table: 1646
cur table: 1645
epoch: 1000
next table: 2362
cur table: 2248
epoch: 1000
next table: 1635
cur table: 1646
epoch: 1000
next table: 2353
cur table: 2362
epoch: 1000
next table: 1622
cur table: 1635
epoch: 1000
next table: 2333
cur table: 2353
epoch: 1000
next table: 1651
cur table: 1622
epoch: 1000
next table: 2362
cur table: 2333
epoch: 1000
next table: 1628
cur table: 1651
epoch: 1000
next table: 2339
cur table: 2362
epoch: 1000
next table: 1642
cur table: 1628
epoch: 1000
next table: 2353
cur table: 2339
epoch: 1000
next table: 1642
cur table: 1642
epoch: 1000
next table: 2390
cur table: 2353
epoch: 1000
next table: 1622
cur table: 1642
epoch: 1000
next table: 2380
cur table: 2390
epoch: 1000
next table: 1637
cur table: 1622
epoch: 1000
next table: 2311
cur table: 2380
epoch: 1000
next table: 2138
cur table: 2311
epoch: 1000
next table: 1630
cur table: 1637
epoch: 1000
next table: 2326
cur table: 2138
epoch: 1000
next table: 1631
cur table: 1630
epoch: 1000
next table: 2309
cur table: 2326
epoch: 1000
next table: 1649
cur table: 1631
epoch: 1000
next table: 2343
cur table: 2309
epoch: 1000
next table: 1663
cur table: 1649
epoch: 1000
next table: 2340
cur table: 2343
epoch: 1000
next table: 1639
cur table: 1663
epoch: 1000
next table: 2344
cur table: 2340
epoch: 1000
next table: 1630
cur table: 1639
epoch: 1000
next table: 2354
cur table: 2344
epoch: 1000
next table: 1633
cur table: 1630
epoch: 1000
next table: 2330
cur table: 2354
epoch: 1000
next table: 1625
cur table: 1633
epoch: 1000
next table: 2323
cur table: 2330
epoch: 1000
next table: 1644
cur table: 1625
epoch: 1000
next table: 2335
cur table: 2323
epoch: 1000
next table: 1654
cur table: 1644
epoch: 1000
next table: 2205
cur table: 2335
epoch: 1000
next table: 1634
cur table: 1654
epoch: 1000
next table: 2379
cur table: 2205
epoch: 1000
next table: 1632
cur table: 1634
epoch: 1000
next table: 2339
cur table: 2379
epoch: 1000
next table: 2302
cur table: 2339
epoch: 1000
next table: 1655
cur table: 1632
epoch: 1000
next table: 2361
cur table: 2302
epoch: 1000
next table: 1641
cur table: 1655
epoch: 1000
next table: 2441
cur table: 2361
epoch: 1000
next table: 1665
cur table: 1641
epoch: 1000
next table: 2370
cur table: 2441
epoch: 1000
next table: 1624
cur table: 1665
epoch: 1000
next table: 2374
cur table: 2370
epoch: 1000
next table: 1626
cur table: 1624
epoch: 1000
next table: 2381
cur table: 2374
epoch: 1000
next table: 1632
cur table: 1626
epoch: 1000
next table: 2325
cur table: 2381
epoch: 1000
next table: 1638
cur table: 1632
epoch: 1000
next table: 2210
cur table: 2325
epoch: 1000
next table: 1654
cur table: 1638
epoch: 1000
next table: 2338
cur table: 2210
epoch: 1000
next table: 1618
cur table: 1654
epoch: 1000
next table: 2337
cur table: 2338
epoch: 1000
next table: 1637
cur table: 1618
epoch: 1000
next table: 2368
cur table: 2337
epoch: 1000
next table: 1630
cur table: 1637
epoch: 1000
next table: 2373
cur table: 2368
epoch: 1000
next table: 1641
cur table: 1630
epoch: 1000
next table: 2347
cur table: 2373
epoch: 1000
next table: 1659
cur table: 1641
epoch: 1000
next table: 2321
cur table: 2347
epoch: 1000
next table: 2360
cur table: 2321
epoch: 1000
next table: 1655
cur table: 1659
epoch: 1000
next table: 2374
cur table: 2360
epoch: 1000
next table: 1630
cur table: 1655
epoch: 1000
next table: 2286
cur table: 2374
epoch: 1000
next table: 1650
cur table: 1630
epoch: 1000
next table: 2295
cur table: 2286
epoch: 1000
next table: 1644
cur table: 1650
epoch: 1000
next table: 2191
cur table: 2295
epoch: 1000
next table: 1655
cur table: 1644
epoch: 1000
next table: 2333
cur table: 2191
epoch: 1000
next table: 1659
cur table: 1655
epoch: 1000
next table: 2344
cur table: 2333
epoch: 1000
next table: 1635
cur table: 1659
epoch: 1000
next table: 2349
cur table: 2344
epoch: 1000
next table: 1633
cur table: 1635
epoch: 1000
next table: 2359
cur table: 2349
epoch: 1000
next table: 1657
cur table: 1633
epoch: 1000
next table: 2346
cur table: 2359
epoch: 1000
next table: 1636
cur table: 1657
epoch: 1000
next table: 2306
cur table: 2346
epoch: 1000
next table: 1639
cur table: 1636
epoch: 1000
next table: 2358
cur table: 2306
epoch: 1000
next table: 2250
cur table: 2358
epoch: 1000
next table: 1658
cur table: 1639
epoch: 1000
next table: 2217
cur table: 2250
epoch: 1000
next table: 1642
cur table: 1658
epoch: 1000
next table: 2342
cur table: 2217
epoch: 1000
next table: 1644
cur table: 1642
epoch: 1000
next table: 2317
cur table: 2342
epoch: 1000
next table: 1650
cur table: 1644
epoch: 1000
next table: 2346
cur table: 2317
epoch: 1000
next table: 1632
cur table: 1650
epoch: 1000
next table: 2410
cur table: 2346
Heartbeat CPU 0 instructions: 30000003 cycles: 8843413 heartbeat IPC: 3.39251 cumulative IPC: 3.39236 (Simulation time: 0 hr 8 min 14 sec) 
epoch: 1000
next table: 1653
cur table: 1632
epoch: 1000
next table: 2383
cur table: 2410
epoch: 1000
next table: 1642
cur table: 1653
epoch: 1000
next table: 2336
cur table: 2383
epoch: 1000
next table: 1645
cur table: 1642
epoch: 1000
next table: 2357
cur table: 2336
epoch: 1000
next table: 1633
cur table: 1645
epoch: 1000
next table: 2356
cur table: 2357
epoch: 1000
next table: 1623
cur table: 1633
epoch: 1000
next table: 2226
cur table: 2356
epoch: 1000
next table: 1670
cur table: 1623
epoch: 1000
next table: 2291
cur table: 2226
epoch: 1000
next table: 1635
cur table: 1670
epoch: 1000
next table: 2326
cur table: 2291
epoch: 1000
next table: 2330
cur table: 2326
epoch: 1000
next table: 1633
cur table: 1635
epoch: 1000
next table: 2374
cur table: 2330
epoch: 1000
next table: 1619
cur table: 1633
epoch: 1000
next table: 2372
cur table: 2374
epoch: 1000
next table: 1635
cur table: 1619
epoch: 1000
next table: 2353
cur table: 2372
epoch: 1000
next table: 1649
cur table: 1635
epoch: 1000
next table: 2360
cur table: 2353
epoch: 1000
next table: 1636
cur table: 1649
epoch: 1000
next table: 2375
cur table: 2360
epoch: 1000
next table: 1636
cur table: 1636
epoch: 1000
next table: 2349
cur table: 2375
epoch: 1000
next table: 1640
cur table: 1636
epoch: 1000
next table: 2270
cur table: 2349
epoch: 1000
next table: 1636
cur table: 1640
epoch: 1000
next table: 2246
cur table: 2270
epoch: 1000
next table: 1634
cur table: 1636
epoch: 1000
next table: 2318
cur table: 2246
epoch: 1000
next table: 1665
cur table: 1634
epoch: 1000
next table: 2371
cur table: 2318
epoch: 1000
next table: 1634
cur table: 1665
epoch: 1000
next table: 2375
cur table: 2371
epoch: 1000
next table: 1627
cur table: 1634
epoch: 1000
next table: 2361
cur table: 2375
epoch: 1000
next table: 1628
cur table: 1627
epoch: 1000
next table: 2348
cur table: 2361
epoch: 1000
next table: 2354
cur table: 2348
epoch: 1000
next table: 1634
cur table: 1628
epoch: 1000
next table: 2329
cur table: 2354
epoch: 1000
next table: 1645
cur table: 1634
epoch: 1000
next table: 2374
cur table: 2329
epoch: 1000
next table: 1623
cur table: 1645
epoch: 1000
next table: 2323
cur table: 2374
epoch: 1000
next table: 1640
cur table: 1623
epoch: 1000
next table: 2155
cur table: 2323
epoch: 1000
next table: 1649
cur table: 1640
epoch: 1000
next table: 2337
cur table: 2155
epoch: 1000
next table: 1646
cur table: 1649
epoch: 1000
next table: 2320
cur table: 2337
epoch: 1000
next table: 1639
cur table: 1646
epoch: 1000
next table: 2380
cur table: 2320
epoch: 1000
next table: 1644
cur table: 1639
epoch: 1000
next table: 2371
cur table: 2380
epoch: 1000
next table: 1650
cur table: 1644
epoch: 1000
next table: 2361
cur table: 2371
epoch: 1000
next table: 1628
cur table: 1650
epoch: 1000
next table: 2324
cur table: 2361
epoch: 1000
next table: 1648
cur table: 1628
epoch: 1000
next table: 2369
cur table: 2324
epoch: 1000
next table: 1637
cur table: 1648
epoch: 1000
next table: 2387
cur table: 2369
epoch: 1000
next table: 2313
cur table: 2387
epoch: 1000
next table: 1663
cur table: 1637
epoch: 1000
next table: 2182
cur table: 2313
epoch: 1000
next table: 1649
cur table: 1663
epoch: 1000
next table: 2308
cur table: 2182
epoch: 1000
next table: 1630
cur table: 1649
epoch: 1000
next table: 2344
cur table: 2308
epoch: 1000
next table: 1631
cur table: 1630
epoch: 1000
next table: 2395
cur table: 2344
epoch: 1000
next table: 1640
cur table: 1631
epoch: 1000
next table: 2342
cur table: 2395
epoch: 1000
next table: 1636
cur table: 1640
epoch: 1000
next table: 2340
cur table: 2342
epoch: 1000
next table: 1667
cur table: 1636
epoch: 1000
next table: 2335
cur table: 2340
epoch: 1000
next table: 1651
cur table: 1667
epoch: 1000
next table: 2353
cur table: 2335
epoch: 1000
next table: 1645
cur table: 1651
epoch: 1000
next table: 2282
cur table: 2353
epoch: 1000
next table: 1648
cur table: 1645
epoch: 1000
next table: 2176
cur table: 2282
epoch: 1000
next table: 1631
cur table: 1648
epoch: 1000
next table: 2296
cur table: 2176
epoch: 1000
next table: 2376
cur table: 2296
epoch: 1000
next table: 1631
cur table: 1631
epoch: 1000
next table: 2383
cur table: 2376
epoch: 1000
next table: 1629
cur table: 1631
epoch: 1000
next table: 2368
cur table: 2383
epoch: 1000
next table: 1645
cur table: 1629
epoch: 1000
next table: 2352
cur table: 2368
epoch: 1000
next table: 1628
cur table: 1645
epoch: 1000
next table: 2345
cur table: 2352
epoch: 1000
next table: 1624
cur table: 1628
epoch: 1000
next table: 2365
cur table: 2345
epoch: 1000
next table: 1644
cur table: 1624
epoch: 1000
next table: 2382
cur table: 2365
epoch: 1000
next table: 1653
cur table: 1644
epoch: 1000
next table: 2301
cur table: 2382
epoch: 1000
next table: 1637
cur table: 1653
epoch: 1000
next table: 2288
cur table: 2301
epoch: 1000
next table: 1626
cur table: 1637
epoch: 1000
next table: 2214
cur table: 2288
epoch: 1000
next table: 1643
cur table: 1626
epoch: 1000
next table: 2330
cur table: 2214
epoch: 1000
next table: 1641
cur table: 1643
epoch: 1000
next table: 2335
cur table: 2330
epoch: 1000
next table: 1653
cur table: 1641
epoch: 1000
next table: 2367
cur table: 2335
epoch: 1000
next table: 1623
cur table: 1653
epoch: 1000
next table: 2367
cur table: 2367
epoch: 1000
next table: 2361
cur table: 2367
epoch: 1000
next table: 1624
cur table: 1623
epoch: 1000
next table: 2337
cur table: 2361
epoch: 1000
next table: 1639
cur table: 1624
epoch: 1000
next table: 2386
cur table: 2337
epoch: 1000
next table: 1632
cur table: 1639
epoch: 1000
next table: 2313
cur table: 2386
epoch: 1000
next table: 1648
cur table: 1632
epoch: 1000
next table: 2294
cur table: 2313
epoch: 1000
next table: 1648
cur table: 1648
epoch: 1000
next table: 2280
cur table: 2294
epoch: 1000
next table: 1647
cur table: 1648
epoch: 1000
next table: 2339
cur table: 2280
epoch: 1000
next table: 1641
cur table: 1647
epoch: 1000
next table: 2370
cur table: 2339
epoch: 1000
next table: 1646
cur table: 1641
epoch: 1000
next table: 2395
cur table: 2370
epoch: 1000
next table: 1635
cur table: 1646
epoch: 1000
next table: 2354
cur table: 2395
epoch: 1000
next table: 1657
cur table: 1635
epoch: 1000
next table: 2355
cur table: 2354
epoch: 1000
next table: 1625
cur table: 1657
epoch: 1000
next table: 2373
cur table: 2355
epoch: 1000
next table: 1632
cur table: 1625
epoch: 1000
next table: 2406
cur table: 2373
epoch: 1000
next table: 2298
cur table: 2406
epoch: 1000
next table: 1640
cur table: 1632
epoch: 1000
next table: 2320
cur table: 2298
epoch: 1000
next table: 1631
cur table: 1640
epoch: 1000
next table: 2206
cur table: 2320
epoch: 1000
next table: 1643
cur table: 1631
epoch: 1000
next table: 2310
cur table: 2206
epoch: 1000
next table: 1629
cur table: 1643
epoch: 1000
next table: 2377
cur table: 2310
epoch: 1000
next table: 1634
cur table: 1629
epoch: 1000
next table: 2336
cur table: 2377
epoch: 1000
next table: 1651
cur table: 1634
epoch: 1000
next table: 2344
cur table: 2336
epoch: 1000
next table: 1637
cur table: 1651
epoch: 1000
next table: 2333
cur table: 2344
epoch: 1000
next table: 1641
cur table: 1637
epoch: 1000
next table: 2335
cur table: 2333
epoch: 1000
next table: 1650
cur table: 1641
epoch: 1000
next table: 2339
cur table: 2335
epoch: 1000
next table: 1644
cur table: 1650
epoch: 1000
next table: 2277
cur table: 2339
epoch: 1000
next table: 1644
cur table: 1644
epoch: 1000
next table: 2170
cur table: 2277
epoch: 1000
next table: 2316
cur table: 2170
epoch: 1000
next table: 1651
cur table: 1644
epoch: 1000
next table: 2336
cur table: 2316
epoch: 1000
next table: 1637
cur table: 1651
epoch: 1000
next table: 2354
cur table: 2336
epoch: 1000
next table: 1659
cur table: 1637
epoch: 1000
next table: 2334
cur table: 2354
epoch: 1000
next table: 1622
cur table: 1659
epoch: 1000
next table: 2331
cur table: 2334
epoch: 1000
next table: 1636
cur table: 1622
epoch: 1000
next table: 2343
cur table: 2331
epoch: 1000
next table: 1643
cur table: 1636
epoch: 1000
next table: 2350
cur table: 2343
epoch: 1000
next table: 1648
cur table: 1643
epoch: 1000
next table: 2336
cur table: 2350
epoch: 1000
next table: 1659
cur table: 1648
epoch: 1000
next table: 2188
cur table: 2336
epoch: 1000
next table: 1625
cur table: 1659
epoch: 1000
next table: 2322
cur table: 2188
epoch: 1000
next table: 1637
cur table: 1625
epoch: 1000
next table: 2344
cur table: 2322
epoch: 1000
next table: 1638
cur table: 1637
epoch: 1000
next table: 2327
cur table: 2344
epoch: 1000
next table: 1634
cur table: 1638
epoch: 1000
next table: 2379
cur table: 2327
epoch: 1000
next table: 2362
cur table: 2379
epoch: 1000
next table: 1636
cur table: 1634
epoch: 1000
next table: 2380
cur table: 2362
epoch: 1000
next table: 1650
cur table: 1636
epoch: 1000
next table: 2328
cur table: 2380
epoch: 1000
next table: 1637
cur table: 1650
epoch: 1000
next table: 2367
cur table: 2328
epoch: 1000
next table: 1639
cur table: 1637
epoch: 1000
next table: 2333
cur table: 2367
epoch: 1000
next table: 1652
cur table: 1639
epoch: 1000
next table: 2136
cur table: 2333
epoch: 1000
next table: 1642
cur table: 1652
epoch: 1000
next table: 2300
cur table: 2136
epoch: 1000
next table: 1664
cur table: 1642
epoch: 1000
next table: 2357
cur table: 2300
epoch: 1000
next table: 1632
cur table: 1664
epoch: 1000
next table: 2362
cur table: 2357
epoch: 1000
next table: 1633
cur table: 1632
epoch: 1000
next table: 2379
cur table: 2362
epoch: 1000
next table: 1651
cur table: 1633
epoch: 1000
next table: 2350
cur table: 2379
epoch: 1000
next table: 1647
cur table: 1651
epoch: 1000
next table: 2334
cur table: 2350
epoch: 1000
next table: 2346
cur table: 2334
epoch: 1000
next table: 1644
cur table: 1647
epoch: 1000
next table: 2364
cur table: 2346
epoch: 1000
next table: 1655
cur table: 1644
epoch: 1000
next table: 2157
cur table: 2364
epoch: 1000
next table: 1619
cur table: 1655
epoch: 1000
next table: 2329
cur table: 2157
epoch: 1000
next table: 1643
cur table: 1619
epoch: 1000
next table: 2330
cur table: 2329
epoch: 1000
next table: 1650
cur table: 1643
epoch: 1000
next table: 2336
cur table: 2330
epoch: 1000
next table: 1649
cur table: 1650
epoch: 1000
next table: 2302
cur table: 2336
epoch: 1000
next table: 1646
cur table: 1649
epoch: 1000
next table: 2338
cur table: 2302
epoch: 1000
next table: 1642
cur table: 1646
epoch: 1000
next table: 2348
cur table: 2338
epoch: 1000
next table: 1632
cur table: 1642
epoch: 1000
next table: 2342
cur table: 2348
epoch: 1000
next table: 1635
cur table: 1632
epoch: 1000
next table: 2287
cur table: 2342
epoch: 1000
next table: 1632
cur table: 1635
epoch: 1000
next table: 2213
cur table: 2287
epoch: 1000
next table: 2255
cur table: 2213
epoch: 1000
next table: 1650
cur table: 1632
epoch: 1000
next table: 2351
cur table: 2255
epoch: 1000
next table: 1668
cur table: 1650
epoch: 1000
next table: 2333
cur table: 2351
epoch: 1000
next table: 1648
cur table: 1668
epoch: 1000
next table: 2345
cur table: 2333
epoch: 1000
next table: 1640
cur table: 1648
epoch: 1000
next table: 2347
cur table: 2345
epoch: 1000
next table: 1636
cur table: 1640
epoch: 1000
next table: 2412
cur table: 2347
epoch: 1000
next table: 1630
cur table: 1636
epoch: 1000
next table: 2344
cur table: 2412
epoch: 1000
next table: 1642
cur table: 1630
epoch: 1000
next table: 2352
cur table: 2344
epoch: 1000
next table: 1624
cur table: 1642
epoch: 1000
next table: 2320
cur table: 2352
epoch: 1000
next table: 1636
cur table: 1624
epoch: 1000
next table: 2182
cur table: 2320
epoch: 1000
next table: 1636
cur table: 1636
epoch: 1000
next table: 2334
cur table: 2182
epoch: 1000
next table: 1638
cur table: 1636
epoch: 1000
next table: 2370
cur table: 2334
epoch: 1000
next table: 1656
cur table: 1638
epoch: 1000
next table: 2339
cur table: 2370
epoch: 1000
next table: 2337
cur table: 2339
epoch: 1000
next table: 1659
cur table: 1656
epoch: 1000
next table: 2376
cur table: 2337
epoch: 1000
next table: 1630
cur table: 1659
epoch: 1000
next table: 2361
cur table: 2376
epoch: 1000
next table: 1641
cur table: 1630
epoch: 1000
next table: 2347
cur table: 2361
epoch: 1000
next table: 1636
cur table: 1641
epoch: 1000
next table: 2309
cur table: 2347
epoch: 1000
next table: 1659
cur table: 1636
epoch: 1000
next table: 2324
cur table: 2309
epoch: 1000
next table: 1646
cur table: 1659
epoch: 1000
next table: 2203
cur table: 2324
epoch: 1000
next table: 1645
cur table: 1646
epoch: 1000
next table: 2349
cur table: 2203
epoch: 1000
next table: 1658
cur table: 1645
epoch: 1000
next table: 2320
cur table: 2349
epoch: 1000
next table: 1648
cur table: 1658
epoch: 1000
next table: 2328
cur table: 2320
epoch: 1000
next table: 1645
cur table: 1648
epoch: 1000
next table: 2338
cur table: 2328
epoch: 1000
next table: 1664
cur table: 1645
epoch: 1000
next table: 2326
cur table: 2338
epoch: 1000
next table: 2337
cur table: 2326
epoch: 1000
next table: 1651
cur table: 1664
Heartbeat CPU 0 instructions: 40000002 cycles: 11791122 heartbeat IPC: 3.39246 cumulative IPC: 3.39238 (Simulation time: 0 hr 10 min 57 sec) 
epoch: 1000
next table: 2323
cur table: 2337
epoch: 1000
next table: 1645
cur table: 1651
epoch: 1000
next table: 2299
cur table: 2323
epoch: 1000
next table: 1637
cur table: 1645
epoch: 1000
next table: 2169
cur table: 2299
epoch: 1000
next table: 1643
cur table: 1637
epoch: 1000
next table: 2295
cur table: 2169
epoch: 1000
next table: 1638
cur table: 1643
epoch: 1000
next table: 2347
cur table: 2295
epoch: 1000
next table: 1644
cur table: 1638
epoch: 1000
next table: 2354
cur table: 2347
epoch: 1000
next table: 1623
cur table: 1644
epoch: 1000
next table: 2348
cur table: 2354
epoch: 1000
next table: 1634
cur table: 1623
epoch: 1000
next table: 2329
cur table: 2348
epoch: 1000
next table: 1631
cur table: 1634
epoch: 1000
next table: 2363
cur table: 2329
epoch: 1000
next table: 1647
cur table: 1631
epoch: 1000
next table: 2383
cur table: 2363
epoch: 1000
next table: 1657
cur table: 1647
epoch: 1000
next table: 2376
cur table: 2383
epoch: 1000
next table: 1644
cur table: 1657
epoch: 1000
next table: 2292
cur table: 2376
epoch: 1000
next table: 2178
cur table: 2292
epoch: 1000
next table: 1643
cur table: 1644
epoch: 1000
next table: 2309
cur table: 2178
epoch: 1000
next table: 1640
cur table: 1643
epoch: 1000
next table: 2364
cur table: 2309
epoch: 1000
next table: 1636
cur table: 1640
epoch: 1000
next table: 2353
cur table: 2364
epoch: 1000
next table: 1662
cur table: 1636
epoch: 1000
next table: 2360
cur table: 2353
epoch: 1000
next table: 1640
cur table: 1662
epoch: 1000
next table: 2352
cur table: 2360
epoch: 1000
next table: 1643
cur table: 1640
epoch: 1000
next table: 2396
cur table: 2352
epoch: 1000
next table: 1644
cur table: 1643
epoch: 1000
next table: 2355
cur table: 2396
epoch: 1000
next table: 1640
cur table: 1644
epoch: 1000
next table: 2354
cur table: 2355
epoch: 1000
next table: 1634
cur table: 1640
epoch: 1000
next table: 2330
cur table: 2354
epoch: 1000
next table: 1657
cur table: 1634
epoch: 1000
next table: 2231
cur table: 2330
epoch: 1000
next table: 1620
cur table: 1657
epoch: 1000
next table: 2339
cur table: 2231
epoch: 1000
next table: 1652
cur table: 1620
epoch: 1000
next table: 2334
cur table: 2339
epoch: 1000
next table: 2333
cur table: 2334
epoch: 1000
next table: 1642
cur table: 1652
epoch: 1000
next table: 2345
cur table: 2333
epoch: 1000
next table: 1638
cur table: 1642
epoch: 1000
next table: 2373
cur table: 2345
epoch: 1000
next table: 1657
cur table: 1638
epoch: 1000
next table: 2385
cur table: 2373
epoch: 1000
next table: 1639
cur table: 1657
epoch: 1000
next table: 2384
cur table: 2385
epoch: 1000
next table: 1634
cur table: 1639
epoch: 1000
next table: 2339
cur table: 2384
epoch: 1000
next table: 1643
cur table: 1634
epoch: 1000
next table: 2317
cur table: 2339
epoch: 1000
next table: 1642
cur table: 1643
epoch: 1000
next table: 2266
cur table: 2317
epoch: 1000
next table: 1641
cur table: 1642
epoch: 1000
next table: 2230
cur table: 2266
epoch: 1000
next table: 1647
cur table: 1641
epoch: 1000
next table: 2304
cur table: 2230
epoch: 1000
next table: 1627
cur table: 1647
epoch: 1000
next table: 2316
cur table: 2304
epoch: 1000
next table: 1643
cur table: 1627
epoch: 1000
next table: 2333
cur table: 2316
epoch: 1000
next table: 1640
cur table: 1643
epoch: 1000
next table: 2334
cur table: 2333
epoch: 1000
next table: 2389
cur table: 2334
epoch: 1000
next table: 1646
cur table: 1640
epoch: 1000
next table: 2348
cur table: 2389
epoch: 1000
next table: 1648
cur table: 1646
epoch: 1000
next table: 2303
cur table: 2348
epoch: 1000
next table: 1648
cur table: 1648
epoch: 1000
next table: 2248
cur table: 2303
epoch: 1000
next table: 1634
cur table: 1648
epoch: 1000
next table: 2238
cur table: 2248
epoch: 1000
next table: 1641
cur table: 1634
epoch: 1000
next table: 2362
cur table: 2238
epoch: 1000
next table: 1644
cur table: 1641
epoch: 1000
next table: 2346
cur table: 2362
epoch: 1000
next table: 1641
cur table: 1644
epoch: 1000
next table: 2348
cur table: 2346
epoch: 1000
next table: 1654
cur table: 1641
epoch: 1000
next table: 2330
cur table: 2348
epoch: 1000
next table: 1630
cur table: 1654
epoch: 1000
next table: 2366
cur table: 2330
epoch: 1000
next table: 1635
cur table: 1630
epoch: 1000
next table: 2371
cur table: 2366
epoch: 1000
next table: 1644
cur table: 1635
epoch: 1000
next table: 2332
cur table: 2371
epoch: 1000
next table: 2295
cur table: 2332
epoch: 1000
next table: 1656
cur table: 1644
epoch: 1000
next table: 2144
cur table: 2295
epoch: 1000
next table: 1656
cur table: 1656
epoch: 1000
next table: 2353
cur table: 2144
epoch: 1000
next table: 1656
cur table: 1656
epoch: 1000
next table: 2374
cur table: 2353
epoch: 1000
next table: 1643
cur table: 1656
epoch: 1000
next table: 2346
cur table: 2374
epoch: 1000
next table: 1636
cur table: 1643
epoch: 1000
next table: 2333
cur table: 2346
epoch: 1000
next table: 1631
cur table: 1636
epoch: 1000
next table: 2353
cur table: 2333
epoch: 1000
next table: 1641
cur table: 1631
epoch: 1000
next table: 2409
cur table: 2353
epoch: 1000
next table: 1635
cur table: 1641
epoch: 1000
next table: 2351
cur table: 2409
epoch: 1000
next table: 1644
cur table: 1635
epoch: 1000
next table: 2293
cur table: 2351
epoch: 1000
next table: 1637
cur table: 1644
epoch: 1000
next table: 2319
cur table: 2293
epoch: 1000
next table: 1633
cur table: 1637
epoch: 1000
next table: 2183
cur table: 2319
epoch: 1000
next table: 1631
cur table: 1633
epoch: 1000
next table: 2346
cur table: 2183
epoch: 1000
next table: 2355
cur table: 2346
epoch: 1000
next table: 1637
cur table: 1631
epoch: 1000
next table: 2359
cur table: 2355
epoch: 1000
next table: 1648
cur table: 1637
epoch: 1000
next table: 2362
cur table: 2359
epoch: 1000
next table: 1622
cur table: 1648
epoch: 1000
next table: 2354
cur table: 2362
epoch: 1000
next table: 1650
cur table: 1622
epoch: 1000
next table: 2335
cur table: 2354
epoch: 1000
next table: 1629
cur table: 1650
epoch: 1000
next table: 2385
cur table: 2335
epoch: 1000
next table: 1658
cur table: 1629
epoch: 1000
next table: 2352
cur table: 2385
epoch: 1000
next table: 1641
cur table: 1658
epoch: 1000
next table: 2312
cur table: 2352
epoch: 1000
next table: 1630
cur table: 1641
epoch: 1000
next table: 2161
cur table: 2312
epoch: 1000
next table: 1629
cur table: 1630
epoch: 1000
next table: 2314
cur table: 2161
epoch: 1000
next table: 1649
cur table: 1629
epoch: 1000
next table: 2397
cur table: 2314
epoch: 1000
next table: 1639
cur table: 1649
epoch: 1000
next table: 2358
cur table: 2397
epoch: 1000
next table: 1650
cur table: 1639
epoch: 1000
next table: 2356
cur table: 2358
epoch: 1000
next table: 2328
cur table: 2356
epoch: 1000
next table: 1651
cur table: 1650
epoch: 1000
next table: 2384
cur table: 2328
epoch: 1000
next table: 1646
cur table: 1651
epoch: 1000
next table: 2357
cur table: 2384
epoch: 1000
next table: 1637
cur table: 1646
epoch: 1000
next table: 2283
cur table: 2357
epoch: 1000
next table: 1636
cur table: 1637
epoch: 1000
next table: 2297
cur table: 2283
epoch: 1000
next table: 1662
cur table: 1636
epoch: 1000
next table: 2225
cur table: 2297
epoch: 1000
next table: 1647
cur table: 1662
epoch: 1000
next table: 2339
cur table: 2225
epoch: 1000
next table: 1658
cur table: 1647
epoch: 1000
next table: 2369
cur table: 2339
epoch: 1000
next table: 1642
cur table: 1658
epoch: 1000
next table: 2316
cur table: 2369
epoch: 1000
next table: 1651
cur table: 1642
epoch: 1000
next table: 2328
cur table: 2316
epoch: 1000
next table: 1670
cur table: 1651
epoch: 1000
next table: 2359
cur table: 2328
epoch: 1000
next table: 1628
cur table: 1670
epoch: 1000
next table: 2403
cur table: 2359
epoch: 1000
next table: 2349
cur table: 2403
epoch: 1000
next table: 1621
cur table: 1628
epoch: 1000
next table: 2292
cur table: 2349
epoch: 1000
next table: 1652
cur table: 1621
epoch: 1000
next table: 2149
cur table: 2292
epoch: 1000
next table: 1631
cur table: 1652
epoch: 1000
next table: 2335
cur table: 2149
epoch: 1000
next table: 1642
cur table: 1631
epoch: 1000
next table: 2374
cur table: 2335
epoch: 1000
next table: 1649
cur table: 1642
epoch: 1000
next table: 2343
cur table: 2374
epoch: 1000
next table: 1645
cur table: 1649
epoch: 1000
next table: 2337
cur table: 2343
epoch: 1000
next table: 1633
cur table: 1645
epoch: 1000
next table: 2340
cur table: 2337
epoch: 1000
next table: 1631
cur table: 1633
epoch: 1000
next table: 2343
cur table: 2340
epoch: 1000
next table: 1633
cur table: 1631
epoch: 1000
next table: 2348
cur table: 2343
epoch: 1000
next table: 1644
cur table: 1633
epoch: 1000
next table: 2368
cur table: 2348
epoch: 1000
next table: 1635
cur table: 1644
epoch: 1000
next table: 2310
cur table: 2368
epoch: 1000
next table: 1647
cur table: 1635
epoch: 1000
next table: 2168
cur table: 2310
epoch: 1000
next table: 2307
cur table: 2168
epoch: 1000
next table: 1641
cur table: 1647
epoch: 1000
next table: 2335
cur table: 2307
epoch: 1000
next table: 1632
cur table: 1641
epoch: 1000
next table: 2399
cur table: 2335
epoch: 1000
next table: 1646
cur table: 1632
epoch: 1000
next table: 2351
cur table: 2399
epoch: 1000
next table: 1655
cur table: 1646
epoch: 1000
next table: 2347
cur table: 2351
epoch: 1000
next table: 1642
cur table: 1655
epoch: 1000
next table: 2327
cur table: 2347
epoch: 1000
next table: 1644
cur table: 1642
epoch: 1000
next table: 2367
cur table: 2327
epoch: 1000
next table: 1647
cur table: 1644
epoch: 1000
next table: 2270
cur table: 2367
epoch: 1000
next table: 1653
cur table: 1647
epoch: 1000
next table: 2147
cur table: 2270
epoch: 1000
next table: 1643
cur table: 1653
epoch: 1000
next table: 2305
cur table: 2147
epoch: 1000
next table: 1642
cur table: 1643
epoch: 1000
next table: 2327
cur table: 2305
epoch: 1000
next table: 1635
cur table: 1642
epoch: 1000
next table: 2385
cur table: 2327
epoch: 1000
next table: 2366
cur table: 2385
epoch: 1000
next table: 1642
cur table: 1635
epoch: 1000
next table: 2330
cur table: 2366
epoch: 1000
next table: 1636
cur table: 1642
epoch: 1000
next table: 2350
cur table: 2330
epoch: 1000
next table: 1658
cur table: 1636
epoch: 1000
next table: 2379
cur table: 2350
epoch: 1000
next table: 1668
cur table: 1658
epoch: 1000
next table: 2312
cur table: 2379
epoch: 1000
next table: 1646
cur table: 1668
epoch: 1000
next table: 2344
cur table: 2312
epoch: 1000
next table: 1627
cur table: 1646
epoch: 1000
next table: 2206
cur table: 2344
epoch: 1000
next table: 1651
cur table: 1627
epoch: 1000
next table: 2342
cur table: 2206
epoch: 1000
next table: 1641
cur table: 1651
epoch: 1000
next table: 2372
cur table: 2342
epoch: 1000
next table: 1633
cur table: 1641
epoch: 1000
next table: 2435
cur table: 2372
epoch: 1000
next table: 1629
cur table: 1633
epoch: 1000
next table: 2366
cur table: 2435
epoch: 1000
next table: 1625
cur table: 1629
epoch: 1000
next table: 2393
cur table: 2366
epoch: 1000
next table: 1644
cur table: 1625
epoch: 1000
next table: 2370
cur table: 2393
epoch: 1000
next table: 1647
cur table: 1644
epoch: 1000
next table: 2366
cur table: 2370
epoch: 1000
next table: 2380
cur table: 2366
epoch: 1000
next table: 1643
cur table: 1647
epoch: 1000
next table: 2308
cur table: 2380
epoch: 1000
next table: 1645
cur table: 1643
epoch: 1000
next table: 2318
cur table: 2308
epoch: 1000
next table: 1615
cur table: 1645
epoch: 1000
next table: 2211
cur table: 2318
epoch: 1000
next table: 1640
cur table: 1615
epoch: 1000
next table: 2346
cur table: 2211
epoch: 1000
next table: 1644
cur table: 1640
epoch: 1000
next table: 2364
cur table: 2346
epoch: 1000
next table: 1648
cur table: 1644
epoch: 1000
next table: 2376
cur table: 2364
epoch: 1000
next table: 1651
cur table: 1648
epoch: 1000
next table: 2334
cur table: 2376
epoch: 1000
next table: 1641
cur table: 1651
epoch: 1000
next table: 2320
cur table: 2334
epoch: 1000
next table: 1632
cur table: 1641
epoch: 1000
next table: 2364
cur table: 2320
epoch: 1000
next table: 1636
cur table: 1632
epoch: 1000
next table: 2373
cur table: 2364
epoch: 1000
next table: 1639
cur table: 1636
epoch: 1000
next table: 2291
cur table: 2373
epoch: 1000
next table: 1657
cur table: 1639
epoch: 1000
next table: 2283
cur table: 2291
epoch: 1000
next table: 2215
cur table: 2283
epoch: 1000
next table: 1644
cur table: 1657
epoch: 1000
next table: 2339
cur table: 2215
epoch: 1000
next table: 1633
cur table: 1644
epoch: 1000
next table: 2384
cur table: 2339
epoch: 1000
next table: 1638
cur table: 1633
epoch: 1000
next table: 2352
cur table: 2384
epoch: 1000
next table: 1646
cur table: 1638
epoch: 1000
next table: 2342
cur table: 2352
epoch: 1000
next table: 1622
cur table: 1646
epoch: 1000
next table: 2360
cur table: 2342
epoch: 1000
next table: 1665
cur table: 1622
epoch: 1000
next table: 2402
cur table: 2360
epoch: 1000
next table: 1631
cur table: 1665
epoch: 1000
next table: 2365
cur table: 2402
Heartbeat CPU 0 instructions: 50000003 cycles: 14738880 heartbeat IPC: 3.39241 cumulative IPC: 3.39239 (Simulation time: 0 hr 13 min 21 sec) 

Warmup complete CPU 0 instructions: 50000003 cycles: 14738880 (Simulation time: 0 hr 13 min 21 sec) 

epoch: 1000
next table: 2163
cur table: 2159
epoch: 1000
next table: 1649
cur table: 1659
epoch: 1000
next table: 2165
cur table: 2163
epoch: 1000
next table: 1672
cur table: 1649
epoch: 1000
next table: 2162
cur table: 2165
epoch: 1000
next table: 1654
cur table: 1672
epoch: 1000
next table: 2146
cur table: 2162
epoch: 1000
next table: 1658
cur table: 1654
epoch: 1000
next table: 2127
cur table: 2146
epoch: 1000
next table: 1649
cur table: 1658
epoch: 1000
next table: 2096
cur table: 2127
epoch: 1000
next table: 1653
cur table: 1649
epoch: 1000
next table: 2095
cur table: 2096
epoch: 1000
next table: 1660
cur table: 1653
epoch: 1000
next table: 2156
cur table: 2095
epoch: 1000
next table: 1657
cur table: 1660
epoch: 1000
next table: 2131
cur table: 2156
epoch: 1000
next table: 1667
cur table: 1657
epoch: 1000
next table: 2150
cur table: 2131
epoch: 1000
next table: 2145
cur table: 2150
epoch: 1000
next table: 1663
cur table: 1667
epoch: 1000
next table: 2164
cur table: 2145
epoch: 1000
next table: 1650
cur table: 1663
epoch: 1000
next table: 2140
cur table: 2164
epoch: 1000
next table: 1654
cur table: 1650
epoch: 1000
next table: 2159
cur table: 2140
epoch: 1000
next table: 1658
cur table: 1654
epoch: 1000
next table: 2086
cur table: 2159
epoch: 1000
next table: 1663
cur table: 1658
epoch: 1000
next table: 2108
cur table: 2086
epoch: 1000
next table: 1668
cur table: 1663
epoch: 1000
next table: 2119
cur table: 2108
epoch: 1000
next table: 1645
cur table: 1668
epoch: 1000
next table: 2130
cur table: 2119
epoch: 1000
next table: 1643
cur table: 1645
epoch: 1000
next table: 2131
cur table: 2130
epoch: 1000
next table: 1652
cur table: 1643
epoch: 1000
next table: 2175
cur table: 2131
epoch: 1000
next table: 1660
cur table: 1652
epoch: 1000
next table: 2127
cur table: 2175
epoch: 1000
next table: 2131
cur table: 2127
epoch: 1000
next table: 1658
cur table: 1660
epoch: 1000
next table: 2098
cur table: 2131
epoch: 1000
next table: 1645
cur table: 1658
epoch: 1000
next table: 2124
cur table: 2098
epoch: 1000
next table: 1666
cur table: 1645
epoch: 1000
next table: 2130
cur table: 2124
epoch: 1000
next table: 1655
cur table: 1666
epoch: 1000
next table: 2154
cur table: 2130
epoch: 1000
next table: 1666
cur table: 1655
epoch: 1000
next table: 2147
cur table: 2154
epoch: 1000
next table: 1632
cur table: 1666
epoch: 1000
next table: 2134
cur table: 2147
epoch: 1000
next table: 1634
cur table: 1632
epoch: 1000
next table: 2142
cur table: 2134
epoch: 1000
next table: 1643
cur table: 1634
epoch: 1000
next table: 2137
cur table: 2142
epoch: 1000
next table: 1662
cur table: 1643
epoch: 1000
next table: 2109
cur table: 2137
epoch: 1000
next table: 1660
cur table: 1662
epoch: 1000
next table: 2114
cur table: 2109
epoch: 1000
next table: 2117
cur table: 2114
epoch: 1000
next table: 1665
cur table: 1660
epoch: 1000
next table: 2132
cur table: 2117
epoch: 1000
next table: 1661
cur table: 1665
epoch: 1000
next table: 2131
cur table: 2132
epoch: 1000
next table: 1653
cur table: 1661
epoch: 1000
next table: 2133
cur table: 2131
epoch: 1000
next table: 1648
cur table: 1653
epoch: 1000
next table: 2129
cur table: 2133
epoch: 1000
next table: 1651
cur table: 1648
epoch: 1000
next table: 2119
cur table: 2129
epoch: 1000
next table: 1650
cur table: 1651
epoch: 1000
next table: 2137
cur table: 2119
epoch: 1000
next table: 1654
cur table: 1650
epoch: 1000
next table: 2098
cur table: 2137
epoch: 1000
next table: 1659
cur table: 1654
epoch: 1000
next table: 2078
cur table: 2098
epoch: 1000
next table: 1658
cur table: 1659
epoch: 1000
next table: 2124
cur table: 2078
epoch: 1000
next table: 1671
cur table: 1658
epoch: 1000
next table: 2139
cur table: 2124
epoch: 1000
next table: 2139
cur table: 2139
epoch: 1000
next table: 1653
cur table: 1671
epoch: 1000
next table: 2145
cur table: 2139
epoch: 1000
next table: 1636
cur table: 1653
epoch: 1000
next table: 2145
cur table: 2145
epoch: 1000
next table: 1648
cur table: 1636
epoch: 1000
next table: 2133
cur table: 2145
epoch: 1000
next table: 1658
cur table: 1648
epoch: 1000
next table: 2122
cur table: 2133
epoch: 1000
next table: 1661
cur table: 1658
epoch: 1000
next table: 2139
cur table: 2122
epoch: 1000
next table: 1650
cur table: 1661
epoch: 1000
next table: 2166
cur table: 2139
epoch: 1000
next table: 1619
cur table: 1650
epoch: 1000
next table: 2144
cur table: 2166
epoch: 1000
next table: 1660
cur table: 1619
epoch: 1000
next table: 2138
cur table: 2144
epoch: 1000
next table: 1655
cur table: 1660
epoch: 1000
next table: 2148
cur table: 2138
epoch: 1000
next table: 1638
cur table: 1655
epoch: 1000
next table: 2150
cur table: 2148
epoch: 1000
next table: 1640
cur table: 1638
epoch: 1000
next table: 2183
cur table: 2150
epoch: 1000
next table: 1647
cur table: 1640
epoch: 1000
next table: 2189
cur table: 2183
epoch: 1000
next table: 2155
cur table: 2189
epoch: 1000
next table: 1656
cur table: 1647
epoch: 1000
next table: 2150
cur table: 2155
epoch: 1000
next table: 1671
cur table: 1656
epoch: 1000
next table: 2156
cur table: 2150
epoch: 1000
next table: 1659
cur table: 1671
epoch: 1000
next table: 2102
cur table: 2156
epoch: 1000
next table: 1653
cur table: 1659
epoch: 1000
next table: 2121
cur table: 2102
epoch: 1000
next table: 1683
cur table: 1653
epoch: 1000
next table: 2161
cur table: 2121
epoch: 1000
next table: 1641
cur table: 1683
epoch: 1000
next table: 2149
cur table: 2161
epoch: 1000
next table: 1657
cur table: 1641
epoch: 1000
next table: 2137
cur table: 2149
epoch: 1000
next table: 1655
cur table: 1657
epoch: 1000
next table: 2142
cur table: 2137
epoch: 1000
next table: 1639
cur table: 1655
epoch: 1000
next table: 2147
cur table: 2142
epoch: 1000
next table: 1652
cur table: 1639
epoch: 1000
next table: 2136
cur table: 2147
epoch: 1000
next table: 1632
cur table: 1652
epoch: 1000
next table: 2141
cur table: 2136
epoch: 1000
next table: 2110
cur table: 2141
epoch: 1000
next table: 1650
cur table: 1632
epoch: 1000
next table: 2109
cur table: 2110
epoch: 1000
next table: 1661
cur table: 1650
epoch: 1000
next table: 2136
cur table: 2109
epoch: 1000
next table: 1629
cur table: 1661
epoch: 1000
next table: 2156
cur table: 2136
epoch: 1000
next table: 1645
cur table: 1629
epoch: 1000
next table: 2177
cur table: 2156
epoch: 1000
next table: 1672
cur table: 1645
epoch: 1000
next table: 2178
cur table: 2177
epoch: 1000
next table: 1666
cur table: 1672
epoch: 1000
next table: 2159
cur table: 2178
epoch: 1000
next table: 1636
cur table: 1666
epoch: 1000
next table: 2181
cur table: 2159
epoch: 1000
next table: 1651
cur table: 1636
epoch: 1000
next table: 2156
cur table: 2181
epoch: 1000
next table: 1642
cur table: 1651
epoch: 1000
next table: 2159
cur table: 2156
epoch: 1000
next table: 1682
cur table: 1642
epoch: 1000
next table: 2131
cur table: 2159
epoch: 1000
next table: 1648
cur table: 1682
epoch: 1000
next table: 2142
cur table: 2131
epoch: 1000
next table: 1643
cur table: 1648
epoch: 1000
next table: 2138
cur table: 2142
epoch: 1000
next table: 1644
cur table: 1643
epoch: 1000
next table: 2141
cur table: 2138
epoch: 1000
next table: 2133
cur table: 2141
epoch: 1000
next table: 1664
cur table: 1644
epoch: 1000
next table: 2131
cur table: 2133
epoch: 1000
next table: 1686
cur table: 1664
epoch: 1000
next table: 2151
cur table: 2131
epoch: 1000
next table: 1673
cur table: 1686
epoch: 1000
next table: 2152
cur table: 2151
epoch: 1000
next table: 1637
cur table: 1673
epoch: 1000
next table: 2146
cur table: 2152
epoch: 1000
next table: 1651
cur table: 1637
epoch: 1000
next table: 2142
cur table: 2146
epoch: 1000
next table: 1635
cur table: 1651
epoch: 1000
next table: 2154
cur table: 2142
epoch: 1000
next table: 1647
cur table: 1635
epoch: 1000
next table: 2168
cur table: 2154
epoch: 1000
next table: 1646
cur table: 1647
epoch: 1000
next table: 2179
cur table: 2168
epoch: 1000
next table: 1651
cur table: 1646
epoch: 1000
next table: 2183
cur table: 2179
epoch: 1000
next table: 1638
cur table: 1651
epoch: 1000
next table: 2178
cur table: 2183
epoch: 1000
next table: 1622
cur table: 1638
epoch: 1000
next table: 2195
cur table: 2178
epoch: 1000
next table: 1633
cur table: 1622
epoch: 1000
next table: 2189
cur table: 2195
epoch: 1000
next table: 1641
cur table: 1633
epoch: 1000
next table: 2168
cur table: 2189
epoch: 1000
next table: 1652
cur table: 1641
epoch: 1000
next table: 2203
cur table: 2168
epoch: 1000
next table: 1639
cur table: 1652
epoch: 1000
next table: 2179
cur table: 2203
epoch: 1000
next table: 2147
cur table: 2179
epoch: 1000
next table: 1650
cur table: 1639
epoch: 1000
next table: 2150
cur table: 2147
epoch: 1000
next table: 1653
cur table: 1650
epoch: 1000
next table: 2167
cur table: 2150
epoch: 1000
next table: 1646
cur table: 1653
epoch: 1000
next table: 2137
cur table: 2167
epoch: 1000
next table: 1649
cur table: 1646
epoch: 1000
next table: 2142
cur table: 2137
epoch: 1000
next table: 1634
cur table: 1649
epoch: 1000
next table: 2157
cur table: 2142
epoch: 1000
next table: 1652
cur table: 1634
epoch: 1000
next table: 2154
cur table: 2157
epoch: 1000
next table: 1648
cur table: 1652
epoch: 1000
next table: 2143
cur table: 2154
epoch: 1000
next table: 1652
cur table: 1648
epoch: 1000
next table: 2180
cur table: 2143
epoch: 1000
next table: 1649
cur table: 1652
epoch: 1000
next table: 2167
cur table: 2180
epoch: 1000
next table: 1660
cur table: 1649
epoch: 1000
next table: 2144
cur table: 2167
epoch: 1000
next table: 1627
cur table: 1660
epoch: 1000
next table: 2146
cur table: 2144
epoch: 1000
next table: 1636
cur table: 1627
epoch: 1000
next table: 2161
cur table: 2146
epoch: 1000
next table: 1632
cur table: 1636
epoch: 1000
next table: 2148
cur table: 2161
epoch: 1000
next table: 2116
cur table: 2148
epoch: 1000
next table: 1665
cur table: 1632
epoch: 1000
next table: 2178
cur table: 2116
epoch: 1000
next table: 1655
cur table: 1665
epoch: 1000
next table: 2191
cur table: 2178
epoch: 1000
next table: 1648
cur table: 1655
epoch: 1000
next table: 2201
cur table: 2191
epoch: 1000
next table: 1641
cur table: 1648
epoch: 1000
next table: 2191
cur table: 2201
epoch: 1000
next table: 1643
cur table: 1641
epoch: 1000
next table: 2170
cur table: 2191
epoch: 1000
next table: 1633
cur table: 1643
epoch: 1000
next table: 2160
cur table: 2170
epoch: 1000
next table: 1647
cur table: 1633
epoch: 1000
next table: 2172
cur table: 2160
epoch: 1000
next table: 1648
cur table: 1647
epoch: 1000
next table: 2168
cur table: 2172
epoch: 1000
next table: 1649
cur table: 1648
epoch: 1000
next table: 2140
cur table: 2168
epoch: 1000
next table: 1637
cur table: 1649
epoch: 1000
next table: 2114
cur table: 2140
epoch: 1000
next table: 1659
cur table: 1637
epoch: 1000
next table: 2116
cur table: 2114
epoch: 1000
next table: 1638
cur table: 1659
epoch: 1000
next table: 2119
cur table: 2116
epoch: 1000
next table: 1641
cur table: 1638
epoch: 1000
next table: 2170
cur table: 2119
epoch: 1000
next table: 2145
cur table: 2170
epoch: 1000
next table: 1650
cur table: 1641
epoch: 1000
next table: 2155
cur table: 2145
epoch: 1000
next table: 1641
cur table: 1650
epoch: 1000
next table: 2146
cur table: 2155
epoch: 1000
next table: 1651
cur table: 1641
epoch: 1000
next table: 2135
cur table: 2146
epoch: 1000
next table: 1648
cur table: 1651
epoch: 1000
next table: 2165
cur table: 2135
epoch: 1000
next table: 1675
cur table: 1648
epoch: 1000
next table: 2157
cur table: 2165
epoch: 1000
next table: 1629
cur table: 1675
epoch: 1000
next table: 2129
cur table: 2157
epoch: 1000
next table: 1665
cur table: 1629
epoch: 1000
next table: 2143
cur table: 2129
epoch: 1000
next table: 1631
cur table: 1665
epoch: 1000
next table: 2158
cur table: 2143
epoch: 1000
next table: 1649
cur table: 1631
epoch: 1000
next table: 2159
cur table: 2158
epoch: 1000
next table: 1649
cur table: 1649
epoch: 1000
next table: 2167
cur table: 2159
epoch: 1000
next table: 1630
cur table: 1649
epoch: 1000
next table: 2198
cur table: 2167
epoch: 1000
next table: 1648
cur table: 1630
epoch: 1000
next table: 2169
cur table: 2198
epoch: 1000
next table: 1640
cur table: 1648
epoch: 1000
next table: 2153
cur table: 2169
epoch: 1000
next table: 2168
cur table: 2153
epoch: 1000
next table: 1637
cur table: 1640
epoch: 1000
next table: 2135
cur table: 2168
epoch: 1000
next table: 1635
cur table: 1637
epoch: 1000
next table: 2102
cur table: 2135
epoch: 1000
next table: 1667
cur table: 1635
epoch: 1000
next table: 2110
cur table: 2102
epoch: 1000
next table: 1633
cur table: 1667
epoch: 1000
next table: 2128
cur table: 2110
epoch: 1000
next table: 1646
cur table: 1633
epoch: 1000
next table: 2123
cur table: 2128
epoch: 1000
next table: 1649
cur table: 1646
epoch: 1000
next table: 2137
cur table: 2123
Heartbeat CPU 0 instructions: 60000000 cycles: 23599506 heartbeat IPC: 1.12859 cumulative IPC: 1.12859 (Simulation time: 0 hr 15 min 58 sec) 
epoch: 1000
next table: 1651
cur table: 1649
epoch: 1000
next table: 2145
cur table: 2137
epoch: 1000
next table: 1658
cur table: 1651
epoch: 1000
next table: 2170
cur table: 2145
epoch: 1000
next table: 1647
cur table: 1658
epoch: 1000
next table: 2176
cur table: 2170
epoch: 1000
next table: 1657
cur table: 1647
epoch: 1000
next table: 2164
cur table: 2176
epoch: 1000
next table: 1633
cur table: 1657
epoch: 1000
next table: 2160
cur table: 2164
epoch: 1000
next table: 1658
cur table: 1633
epoch: 1000
next table: 2126
cur table: 2160
epoch: 1000
next table: 2131
cur table: 2126
epoch: 1000
next table: 1640
cur table: 1658
epoch: 1000
next table: 2170
cur table: 2131
epoch: 1000
next table: 1649
cur table: 1640
epoch: 1000
next table: 2170
cur table: 2170
epoch: 1000
next table: 1655
cur table: 1649
epoch: 1000
next table: 2169
cur table: 2170
epoch: 1000
next table: 1649
cur table: 1655
epoch: 1000
next table: 2125
cur table: 2169
epoch: 1000
next table: 1642
cur table: 1649
epoch: 1000
next table: 2163
cur table: 2125
epoch: 1000
next table: 1640
cur table: 1642
epoch: 1000
next table: 2126
cur table: 2163
epoch: 1000
next table: 1668
cur table: 1640
epoch: 1000
next table: 2160
cur table: 2126
epoch: 1000
next table: 1648
cur table: 1668
epoch: 1000
next table: 2156
cur table: 2160
epoch: 1000
next table: 1643
cur table: 1648
epoch: 1000
next table: 2113
cur table: 2156
epoch: 1000
next table: 1645
cur table: 1643
epoch: 1000
next table: 2099
cur table: 2113
epoch: 1000
next table: 1641
cur table: 1645
epoch: 1000
next table: 2157
cur table: 2099
epoch: 1000
next table: 2143
cur table: 2157
epoch: 1000
next table: 1646
cur table: 1641
epoch: 1000
next table: 2162
cur table: 2143
epoch: 1000
next table: 1656
cur table: 1646
epoch: 1000
next table: 2147
cur table: 2162
epoch: 1000
next table: 1654
cur table: 1656
epoch: 1000
next table: 2149
cur table: 2147
epoch: 1000
next table: 1647
cur table: 1654
epoch: 1000
next table: 2149
cur table: 2149
epoch: 1000
next table: 1654
cur table: 1647
epoch: 1000
next table: 2170
cur table: 2149
epoch: 1000
next table: 1645
cur table: 1654
epoch: 1000
next table: 2164
cur table: 2170
epoch: 1000
next table: 1664
cur table: 1645
epoch: 1000
next table: 2169
cur table: 2164
epoch: 1000
next table: 1640
cur table: 1664
epoch: 1000
next table: 2142
cur table: 2169
epoch: 1000
next table: 1649
cur table: 1640
epoch: 1000
next table: 2122
cur table: 2142
epoch: 1000
next table: 1647
cur table: 1649
epoch: 1000
next table: 2134
cur table: 2122
epoch: 1000
next table: 1639
cur table: 1647
epoch: 1000
next table: 2163
cur table: 2134
epoch: 1000
next table: 1642
cur table: 1639
epoch: 1000
next table: 2162
cur table: 2163
epoch: 1000
next table: 1649
cur table: 1642
epoch: 1000
next table: 2183
cur table: 2162
epoch: 1000
next table: 1642
cur table: 1649
epoch: 1000
next table: 2179
cur table: 2183
epoch: 1000
next table: 2170
cur table: 2179
epoch: 1000
next table: 1658
cur table: 1642
epoch: 1000
next table: 2155
cur table: 2170
epoch: 1000
next table: 1636
cur table: 1658
epoch: 1000
next table: 2158
cur table: 2155
epoch: 1000
next table: 1653
cur table: 1636
epoch: 1000
next table: 2120
cur table: 2158
epoch: 1000
next table: 1671
cur table: 1653
epoch: 1000
next table: 2132
cur table: 2120
epoch: 1000
next table: 1642
cur table: 1671
epoch: 1000
next table: 2133
cur table: 2132
epoch: 1000
next table: 1653
[...]
epoch: 1000
next table: 1667
cur table: 1631
epoch: 1000
next table: 2149
cur table: 2146
epoch: 1000
next table: 1640
cur table: 1667
epoch: 1000
next table: 2150
cur table: 2149
epoch: 1000
next table: 1653
cur table: 1640
epoch: 1000
next table: 2150
cur table: 2150
epoch: 1000
next table: 1657
cur table: 1653
epoch: 1000
next table: 2163
cur table: 2150
epoch: 1000
next table: 1640
cur table: 1657
epoch: 1000
next table: 2156
cur table: 2163
epoch: 1000
next table: 1645
cur table: 1640
epoch: 1000
next table: 2157
cur table: 2156
epoch: 1000
next table: 2158
cur table: 2157
epoch: 1000
next table: 1677
cur table: 1645
epoch: 1000
next table: 2148
cur table: 2158
epoch: 1000
next table: 1635
cur table: 1677
epoch: 1000
next table: 2151
cur table: 2148
epoch: 1000
next table: 1665
cur table: 1635
epoch: 1000
next table: 2107
cur table: 2151
epoch: 1000
next table: 1656
cur table: 1665
epoch: 1000
next table: 2134
cur table: 2107
epoch: 1000
next table: 1657
cur table: 1656
epoch: 1000
next table: 2113
cur table: 2134
epoch: 1000
next table: 1649
cur table: 1657
epoch: 1000
next table: 2158
cur table: 2113
epoch: 1000
next table: 1651
cur table: 1649
epoch: 1000
next table: 2137
cur table: 2158
epoch: 1000
next table: 1648
cur table: 1651
epoch: 1000
next table: 2139
cur table: 2137
epoch: 1000
next table: 1643
cur table: 1648
epoch: 1000
next table: 2135
cur table: 2139
epoch: 1000
next table: 1626
cur table: 1643
epoch: 1000
next table: 2137
cur table: 2135
epoch: 1000
next table: 1653
cur table: 1626
epoch: 1000
next table: 2168
cur table: 2137
epoch: 1000
next table: 2152
cur table: 2168
epoch: 1000
next table: 1646
cur table: 1653
epoch: 1000
next table: 2120
cur table: 2152
epoch: 1000
next table: 1642
cur table: 1646
epoch: 1000
next table: 2127
cur table: 2120
epoch: 1000
next table: 1641
cur table: 1642
epoch: 1000
next table: 2149
cur table: 2127
epoch: 1000
next table: 1651
cur table: 1641
epoch: 1000
next table: 2153
cur table: 2149
epoch: 1000
next table: 1655
cur table: 1651
epoch: 1000
next table: 2151
cur table: 2153
epoch: 1000
next table: 1653
cur table: 1655
epoch: 1000
next table: 2142
cur table: 2151
epoch: 1000
next table: 1637
cur table: 1653
epoch: 1000
next table: 2151
cur table: 2142
epoch: 1000
next table: 1647
cur table: 1637
Heartbeat CPU 0 instructions: 100000000 cycles: 59057885 heartbeat IPC: 1.1289 cumulative IPC: 1.12818 (Simulation time: 0 hr 24 min 34 sec) 
Finished CPU 0 instructions: 50000000 cycles: 44319021 cumulative IPC: 1.12818 (Simulation time: 0 hr 24 min 34 sec) 

ChampSim completed all CPUs

Region of Interest Statistics

CPU 0 cumulative IPC: 1.12818 instructions: 50000000 cycles: 44319021
ITLB TOTAL     ACCESS:    6032305  HIT:    6032305  MISS:          0  HIT %:        100  MISS %:          0   MPKI: 0
ITLB LOAD TRANSLATION ACCESS:    6032305  HIT:    6032305  MISS:          0  HIT %:        100  MISS %:          0   MPKI: 0
ITLB PREFETCH  REQUESTED:          0  ISSUED:          0  USEFUL:          0  USELESS:          0
ITLB USEFUL LOAD PREFETCHES:          0 PREFETCH ISSUED TO LOWER LEVEL:          0  ACCURACY: -nan
ITLB TIMELY PREFETCHES:          0 LATE PREFETCHES: 0 DROPPED PREFETCHES: 0
ITLB PREFETCHES SAME FILL-ORIGIN LEVEL: 0 DIFFERENT FILL-ORIGIN LEVEL: 0
ITLB AVERAGE MISS LATENCY: -nan cycles
ITLB RQ	ACCESS:    7012243	FORWARD:          0	MERGED:     979938	TO_CACHE:    6032305

Revised Interactions: positive negative neutral
ITLB_interactions 0 0 0 -nan -nan -nan
DTLB TOTAL     ACCESS:   12482195  HIT:   12374447  MISS:     107748  HIT %:    99.1368  MISS %:   0.863214   MPKI: 2.15496
DTLB LOAD TRANSLATION ACCESS:   12482195  HIT:   12374447  MISS:     107748  HIT %:    99.1368  MISS %:   0.863214   MPKI: 2.15496
DTLB PREFETCH  REQUESTED:          0  ISSUED:          0  USEFUL:          0  USELESS:          0
DTLB USEFUL LOAD PREFETCHES:          0 PREFETCH ISSUED TO LOWER LEVEL:          0  ACCURACY: -nan
DTLB TIMELY PREFETCHES:          0 LATE PREFETCHES: 0 DROPPED PREFETCHES: 0
DTLB PREFETCHES SAME FILL-ORIGIN LEVEL: 0 DIFFERENT FILL-ORIGIN LEVEL: 0
DTLB AVERAGE MISS LATENCY: 44.3664 cycles
DTLB RQ	ACCESS:   18630499	FORWARD:          0	MERGED:    6143380	TO_CACHE:   12487119

Revised Interactions: positive negative neutral
DTLB_interactions 0 0 0 -nan -nan -nan
STLB TOTAL     ACCESS:     107748  HIT:      97090  MISS:      10658  HIT %:    90.1084  MISS %:     9.8916   MPKI: 0.21316
STLB LOAD TRANSLATION ACCESS:     107748  HIT:      97090  MISS:      10658  HIT %:    90.1084  MISS %:     9.8916   MPKI: 0.21316
STLB PREFETCH  REQUESTED:          0  ISSUED:          0  USEFUL:          0  USELESS:          0
STLB USEFUL LOAD PREFETCHES:          0 PREFETCH ISSUED TO LOWER LEVEL:          0  ACCURACY: -nan
STLB TIMELY PREFETCHES:          0 LATE PREFETCHES: 0 DROPPED PREFETCHES: 0
STLB PREFETCHES SAME FILL-ORIGIN LEVEL: 0 DIFFERENT FILL-ORIGIN LEVEL: 0
STLB AVERAGE MISS LATENCY: 350.374 cycles
STLB RQ	ACCESS:     107748	FORWARD:          0	MERGED:          0	TO_CACHE:     107748

Revised Interactions: positive negative neutral
STLB_interactions 0 0 0 -nan -nan -nan
STLB Hit, L1D data hit: 0
STLB Hit, L2C data hit: 0
STLB Hit, LLC data hit: 0
STLB Hit, LLC data miss: 0
STLB STLB hints to L2: 0
L1D TOTAL     ACCESS:   17705547  HIT:   16861950  MISS:     843597  HIT %:    95.2354  MISS %:    4.76459   MPKI: 16.8719
L1D LOAD      ACCESS:    9464283  HIT:    8932724  MISS:     531559  HIT %:    94.3835  MISS %:    5.61647   MPKI: 10.6312
L1D RFO       ACCESS:    8241264  HIT:    7929226  MISS:     312038  HIT %:    96.2137  MISS %:    3.78629   MPKI: 6.24076
L1D PREFETCH  REQUESTED:          0  ISSUED:          0  USEFUL:          0  USELESS:          0
L1D USEFUL LOAD PREFETCHES:          0 PREFETCH ISSUED TO LOWER LEVEL:          0  ACCURACY: -nan
L1D TIMELY PREFETCHES:          0 LATE PREFETCHES: 0 DROPPED PREFETCHES: 0
L1D PREFETCHES SAME FILL-ORIGIN LEVEL: 0 DIFFERENT FILL-ORIGIN LEVEL: 0
L1D AVERAGE MISS LATENCY: 166.63 cycles
L1D RQ	ACCESS:   14226363	FORWARD:          0	MERGED:    4670427	TO_CACHE:    9470351
L1D WQ	ACCESS:    9162268	FORWARD:      85585	MERGED:       2120	TO_CACHE:    9160148

Revised Interactions: positive negative neutral
L1D_interactions 0 0 0 -nan -nan -nan
L1D UNIQUE REGIONS ACCESSED: 0
L1D REGIONS CONFLICTS: 0
L1D Cross Page Prefetch Requests: 0
L1D Same Page Prefetch Requests: 0
L1D ROI Sum of L1D PQ occupancy: 0
L1D PREFETCHES PUSHED FROM L2C: 0
L1I TOTAL     ACCESS:    7012241  HIT:    7012241  MISS:          0  HIT %:        100  MISS %:          0   MPKI: 0
L1I LOAD      ACCESS:    7012241  HIT:    7012241  MISS:          0  HIT %:        100  MISS %:          0   MPKI: 0
L1I PREFETCH  REQUESTED:          0  ISSUED:          0  USEFUL:          0  USELESS:          0
L1I USEFUL LOAD PREFETCHES:          0 PREFETCH ISSUED TO LOWER LEVEL:          0  ACCURACY: -nan
L1I TIMELY PREFETCHES:          0 LATE PREFETCHES: 0 DROPPED PREFETCHES: 0
L1I PREFETCHES SAME FILL-ORIGIN LEVEL: 0 DIFFERENT FILL-ORIGIN LEVEL: 0
L1I AVERAGE MISS LATENCY: -nan cycles
L1I RQ	ACCESS:   10109471	FORWARD:          0	MERGED:    3097228	TO_CACHE:    7012243

Revised Interactions: positive negative neutral
L1I_interactions 0 0 0 -nan -nan -nan
BTB TOTAL     ACCESS:     421996  HIT:     421991  MISS:          5  HIT %:    99.9988  MISS %: 0.00118485   MPKI: 0.0001
BTB BRANCH_DIRECT_JUMP	ACCESS:          0  HIT:          0  MISS:          0
BTB BRANCH_INDIRECT	ACCESS:          0  HIT:          0  MISS:          0
BTB BRANCH_CONDITIONAL	ACCESS:     421996  HIT:     421991  MISS:          5
BTB BRANCH_DIRECT_CALL	ACCESS:          0  HIT:          0  MISS:          0
BTB BRANCH_INDIRECT_CALL	ACCESS:          0  HIT:          0  MISS:          0
BTB BRANCH_RETURN	ACCESS:          0  HIT:          0  MISS:          0
BTB BRANCH_OTHER ACCESS:          0  HIT:          0  MISS:          0

L2C TOTAL     ACCESS:    1791902  HIT:    1053192  MISS:     738710  HIT %:    58.7751  MISS %:    41.2249   MPKI: 14.7742
L2C LOAD      ACCESS:     531463  HIT:     387385  MISS:     144078  HIT %:    72.8903  MISS %:    27.1097   MPKI: 2.88156
L2C DATA LOAD MPKI: 2.88156
L2C INSTRUCTION LOAD MPKI: 0
L2C RFO       ACCESS:     304919  HIT:       7225  MISS:     297694  HIT %:    2.36948  MISS %:    97.6305   MPKI: 5.95388
L2C PREFETCH  ACCESS:     628514  HIT:     335006  MISS:     293508  HIT %:    53.3013  MISS %:    46.6987   MPKI: 5.87016
L2C DATA PREFETCH MPKI: 5.87016
L2C INSTRUCTION PREFETCH MPKI: 0
L2C WRITEBACK ACCESS:     316340  HIT:     314539  MISS:       1801  HIT %:    99.4307  MISS %:   0.569324   MPKI: 0.03602
L2C LOAD TRANSLATION ACCESS:      10666  HIT:       9037  MISS:       1629  HIT %:    84.7272  MISS %:    15.2728   MPKI: 0.03258
L2C PREFETCH  REQUESTED:    3276036  ISSUED:    2987904  USEFUL:     292993  USELESS:        513
L2C USEFUL LOAD PREFETCHES:     292993 PREFETCH ISSUED TO LOWER LEVEL:    2650977  ACCURACY: 11.0523
L2C TIMELY PREFETCHES:     292993 LATE PREFETCHES: 16 DROPPED PREFETCHES: 0
L2C PREFETCHES SAME FILL-ORIGIN LEVEL: 293524 DIFFERENT FILL-ORIGIN LEVEL: 2357453
L2C AVERAGE MISS LATENCY: 186.388 cycles
L2C RQ	ACCESS:     854265	FORWARD:          0	MERGED:          0	TO_CACHE:     847050
L2C WQ	ACCESS:     316340	FORWARD:       7215	MERGED:          0	TO_CACHE:     316340
L2C PQ	ACCESS:    2987904	FORWARD:          0	MERGED:       1753	TO_CACHE:    2986151

Revised Interactions: positive negative neutral
L2C_interactions 289410 189 3244 98.8277 0.0645397 1.10776
L2C Instructions Evicting Data 0
L2C Translations Evicting Data 1616
L2C Data Evicting Data 733738
L2C Instructions Evicting Instructions 0
L2C Translations Evicting Instructions 0
L2C Data Evicting Instructions 0
L2C Instructions Evicting Translations 0
L2C Translations Evicting Translations 13
L2C Data Evicting Translations 1542
L2C Dense regions hint from L2: 0
PSCL5 TOTAL     ACCESS:      10658  HIT:      10658  MISS:          0  HIT %:        100  MISS %:          0   MPKI: 0
PSCL5 LOAD TRANSLATION ACCESS:      10658  HIT:      10658  MISS:          0  HIT %:        100  MISS %:          0   MPKI: 0
PSCL5 PREFETCH  REQUESTED:          0  ISSUED:          0  USEFUL:          0  USELESS:          0
PSCL5 USEFUL LOAD PREFETCHES:          0 PREFETCH ISSUED TO LOWER LEVEL:          0  ACCURACY: -nan
PSCL5 TIMELY PREFETCHES:          0 LATE PREFETCHES: 0 DROPPED PREFETCHES: 0
PSCL5 PREFETCHES SAME FILL-ORIGIN LEVEL: 0 DIFFERENT FILL-ORIGIN LEVEL: 0

Revised Interactions: positive negative neutral
PSCL5_interactions 0 0 0 -nan -nan -nan
PSCL4 TOTAL     ACCESS:      10658  HIT:      10658  MISS:          0  HIT %:        100  MISS %:          0   MPKI: 0
PSCL4 LOAD TRANSLATION ACCESS:      10658  HIT:      10658  MISS:          0  HIT %:        100  MISS %:          0   MPKI: 0
PSCL4 PREFETCH  REQUESTED:          0  ISSUED:          0  USEFUL:          0  USELESS:          0
PSCL4 USEFUL LOAD PREFETCHES:          0 PREFETCH ISSUED TO LOWER LEVEL:          0  ACCURACY: -nan
PSCL4 TIMELY PREFETCHES:          0 LATE PREFETCHES: 0 DROPPED PREFETCHES: 0
PSCL4 PREFETCHES SAME FILL-ORIGIN LEVEL: 0 DIFFERENT FILL-ORIGIN LEVEL: 0

Revised Interactions: positive negative neutral
PSCL4_interactions 0 0 0 -nan -nan -nan
PSCL3 TOTAL     ACCESS:       8505  HIT:       8499  MISS:          6  HIT %:    99.9295  MISS %:  0.0705467   MPKI: 0.00012
PSCL3 LOAD TRANSLATION ACCESS:       8505  HIT:       8499  MISS:          6  HIT %:    99.9295  MISS %:  0.0705467   MPKI: 0.00012
PSCL3 PREFETCH  REQUESTED:          0  ISSUED:          0  USEFUL:          0  USELESS:          0
PSCL3 USEFUL LOAD PREFETCHES:          0 PREFETCH ISSUED TO LOWER LEVEL:          0  ACCURACY: -nan
PSCL3 TIMELY PREFETCHES:          0 LATE PREFETCHES: 0 DROPPED PREFETCHES: 0
PSCL3 PREFETCHES SAME FILL-ORIGIN LEVEL: 0 DIFFERENT FILL-ORIGIN LEVEL: 0

Revised Interactions: positive negative neutral
PSCL3_interactions 0 0 0 -nan -nan -nan
PSCL2 TOTAL     ACCESS:      10658  HIT:      10638  MISS:         20  HIT %:    99.8123  MISS %:   0.187652   MPKI: 0.0004
PSCL2 LOAD TRANSLATION ACCESS:      10658  HIT:      10638  MISS:         20  HIT %:    99.8123  MISS %:   0.187652   MPKI: 0.0004
PSCL2 PREFETCH  REQUESTED:          0  ISSUED:          0  USEFUL:          0  USELESS:          0
PSCL2 USEFUL LOAD PREFETCHES:          0 PREFETCH ISSUED TO LOWER LEVEL:          0  ACCURACY: -nan
PSCL2 TIMELY PREFETCHES:          0 LATE PREFETCHES: 0 DROPPED PREFETCHES: 0
PSCL2 PREFETCHES SAME FILL-ORIGIN LEVEL: 0 DIFFERENT FILL-ORIGIN LEVEL: 0

Revised Interactions: positive negative neutral
PSCL2_interactions 0 0 0 -nan -nan -nan
LLC TOTAL     ACCESS:    3392522  HIT:    2702029  MISS:     690493  HIT %:    79.6466  MISS %:    20.3534   MPKI: 13.8099
LLC LOAD      ACCESS:     144062  HIT:     133952  MISS:      10110  HIT %:    92.9822  MISS %:    7.01781   MPKI: 0.2022
LLC RFO       ACCESS:     297694  HIT:          0  MISS:     297694  HIT %:          0  MISS %:        100   MPKI: 5.95388
LLC PREFETCH  ACCESS:    2650134  HIT:    2276087  MISS:     374047  HIT %:    85.8857  MISS %:    14.1143   MPKI: 7.48094
LLC WRITEBACK ACCESS:     299003  HIT:     291739  MISS:       7264  HIT %:    97.5706  MISS %:    2.42941   MPKI: 0.14528
LLC LOAD TRANSLATION ACCESS:       1629  HIT:        251  MISS:       1378  HIT %:    15.4082  MISS %:    84.5918   MPKI: 0.02756
LLC PREFETCH  REQUESTED:          0  ISSUED:          0  USEFUL:     124411  USELESS:     248803
LLC USEFUL LOAD PREFETCHES:     124411 PREFETCH ISSUED TO LOWER LEVEL:     374059  ACCURACY: 33.2597
LLC TIMELY PREFETCHES:     124411 LATE PREFETCHES: 12 DROPPED PREFETCHES: 0
LLC PREFETCHES SAME FILL-ORIGIN LEVEL: 367175 DIFFERENT FILL-ORIGIN LEVEL: 0
LLC AVERAGE MISS LATENCY: 270.508 cycles
LLC RQ	ACCESS:     443387	FORWARD:          0	MERGED:          0	TO_CACHE:     443387
LLC WQ	ACCESS:     299004	FORWARD:          0	MERGED:          0	TO_CACHE:     299004
LLC PQ	ACCESS:    2650977	FORWARD:          0	MERGED:        120	TO_CACHE:    2650857

Revised Interactions: positive negative neutral
LLC_interactions 118203 255174 107469 24.5823 53.0677 22.35
LLC Dense regions hint to LLC: 0

RAW hits: 435104
Loads Generated: 14661467
Loads sent to L1D: 14226363
Stores Generated: 9162260
Stores sent to L1D: 9162268
Major fault: 0 Minor fault: 20761
Allocated PAGES: 20761
 All Calls: 1118458
 Critical Calls: 1118458
------------------
Depth Distribution
------------------
depth 0: 0
depth 1: 957512
depth 2: 952707
depth 3: 869294
depth 4: 796629
depth 5: 742600
depth 6: 695213
depth 7: 531698
depth 8: 321077
depth 9: 54787
depth 10: 658
depth 11: 1
depth 12: 0
depth 13: 0
depth 14: 0
depth 15: 0
depth 16: 0
depth 17: 0
depth 18: 0
depth 19: 0
depth 20: 0
depth 21: 0
depth 22: 0
depth 23: 0
depth 24: 0
depth 25: 0
depth 26: 0
depth 27: 0
depth 28: 0
depth 29: 0
Total: 5922176
-----------------------------
-----------------------------
	Captured at Filter
-----------------------------
depth 0: 0
depth 1: 90775
depth 2: 51752
depth 3: 50664
depth 4: 50959
depth 5: 49208
depth 6: 47143
depth 7: 38660
depth 8: 18133
depth 9: 3207
depth 10: 110
depth 11: 1
depth 12: 0
depth 13: 0
depth 14: 0
depth 15: 0
depth 16: 0
depth 17: 0
depth 18: 0
depth 19: 0
depth 20: 0
depth 21: 0
depth 22: 0
depth 23: 0
depth 24: 0
depth 25: 0
depth 26: 0
depth 27: 0
depth 28: 0
depth 29: 0
-----------------------------
-----------------------------
		Lost at Page
-----------------------------
depth 0: 0
depth 1: 19352
depth 2: 32734
depth 3: 48675
depth 4: 61235
depth 5: 77432
depth 6: 89093
depth 7: 83910
depth 8: 62043
depth 9: 18161
depth 10: 247
depth 11: 0
depth 12: 0
depth 13: 0
depth 14: 0
depth 15: 0
depth 16: 0
depth 17: 0
depth 18: 0
depth 19: 0
depth 20: 0
depth 21: 0
depth 22: 0
depth 23: 0
depth 24: 0
depth 25: 0
depth 26: 0
depth 27: 0
depth 28: 0
depth 29: 0
-----------------------------
-----------------------------
	Lost due to PQ Size
-----------------------------
883858
-----------------------------
ST read accesses: 525562
ST write accesses: 5901
PT read accesses: 21095722
PT write accesses: 766407
FILTER read accesses: 4727437
FILTER write accesses: 1391432
GHR read accesses: 1388762
GHR write accesses: 231789
GHR counter read accesses: 17934122
GHR counter write accesses: 1200435
ST tag read accesses: 207630568
ST tag write accesses: 7017785

DRAM Statistics
 CHANNEL 0
 RQ ROW_BUFFER_HIT:     370552  ROW_BUFFER_MISS:     312677
 DBUS_CONGESTED:        411
 WQ ROW_BUFFER_HIT:      62827  ROW_BUFFER_MISS:     236682  FULL:          0

 AVG_CONGESTED_CYCLE: 4
 All warmup complete: 2
Channel 0 Bank busy for read cycles: 0
Channel 0 Bank busy for write cycles: 0
Channel 0
Rank 0
0banks busy for read cycles: 431201
0banks busy for write cycles: 5509
1banks busy for read cycles: 15697624
1banks busy for write cycles: 739829
2banks busy for read cycles: 8522955
2banks busy for write cycles: 1164422
3banks busy for read cycles: 4293983
3banks busy for write cycles: 1533570
4banks busy for read cycles: 1959964
4banks busy for write cycles: 1773560
5banks busy for read cycles: 878910
5banks busy for write cycles: 1758282
6banks busy for read cycles: 425344
6banks busy for write cycles: 1584937
7banks busy for read cycles: 308325
7banks busy for write cycles: 1466787
8banks busy for read cycles: 365688
8banks busy for write cycles: 1408132

CPU 0 Branch Prediction Accuracy: 80.6206% MPKI: 1.63562 Average ROB Occupancy at Mispredict: 79.6239
Branch types
NOT_BRANCH: 49577687 99.1554%
BRANCH_DIRECT_JUMP: 0 0%
BRANCH_INDIRECT: 0 0%
BRANCH_CONDITIONAL: 421999 0.843998%
BRANCH_DIRECT_CALL: 0 0%
BRANCH_INDIRECT_CALL: 0 0%
BRANCH_RETURN: 0 0%
BRANCH_OTHER: 0 0%

@sumon_overall_L1D         0         0         0         0         0         0         0
@Sumon_Early_by_class_L1D         0         0         0         0
@Sumon_Late_by_class_L1D         0         0         0         0

@Sumon_Early_by_cycle_L1D         0         0         0         0         0         0         0         0         0         0         0         0
@Sumon_Late_by_cycle_L1D         0         0         0         0         0         0
@Sumon_Early_stream_L1D         0         0         0         0         0         0         0         0         0         0         0         0
@Sumon_Early_CS_L1D         0         0         0         0         0         0         0         0         0         0         0         0
@Sumon_Early_CPLX_L1D         0         0         0         0         0         0         0         0         0         0         0         0
@Sumon_Late_stream_L1D         0         0         0         0         0         0
@Sumon_Late_CS_L1D         0         0         0         0         0         0
@Sumon_Late_CPLX_L1D         0         0         0         0         0         0
@sumon_overall_L2C    292993        16         0       513    293508   2987904   3276036
@Sumon_Early_by_class_L2C         0         0         0         0
@Sumon_Late_by_class_L2C         0         0         0         0

@Sumon_Early_by_cycle_L2C        12       144       170     18456    179585     93846       673        70         1        23         0        13
@Sumon_Late_by_cycle_L2C        11         0         1         0         4         0
@Sumon_Early_stream_L2C         0         0         0         0         0         0         0         0         0         0         0         0
@Sumon_Early_CS_L2C         0         0         0         0         0         0         0         0         0         0         0         0
@Sumon_Early_CPLX_L2C         0         0         0         0         0         0         0         0         0         0         0         0
@Sumon_Late_stream_L2C         0         0         0         0         0         0
@Sumon_Late_CS_L2C         0         0         0         0         0         0
@Sumon_Late_CPLX_L2C         0         0         0         0         0         0
DRAM PAGES: 1048576
Allocated PAGES: 20761
