Initialize SIGNATURE TABLE
ST_SET: 1
ST_WAY: 256
ST_TAG_BIT: 16
ST_TAG_MASK: ffff

Initialize PATTERN TABLE
PT_SET: 512
PT_WAY: 4
SIG_DELTA_BIT: 7
C_SIG_BIT: 4
C_DELTA_BIT: 4

Initialize PREFETCH FILTER
FILTER_SET: 1024

*** ChampSim Multicore Out-of-Order Simulator ***

Warmup Instructions: 50000000
Simulation Instructions: 50000000
Number of CPUs: 1
LLC sets: 2048
LLC ways: 16
Off-chip DRAM Size: 4096 MB Channels: 1 Width: 64-bit Data Rate: 6400 MT/s
CPU 0 runs ../../biswa/SPEC2017Traces/605.mcf_s-782B.champsimtrace.xz
.xz
CPU 0 Bimodal branch predictor
BTB has LRU replacement policy
ITLB has LRU replacement policy
DTLB has LRU replacement policy
STLB has LRU replacement policy
L1I has LRU replacement policy
L1D has LRU replacement policy
ST_WAYS: 256
PT_SETS: 512
Initialize DRRIP state for L2C
Initialize DRRIP state for LLC
epoch: 1000
next table: 2937
cur table: 10009
epoch: 1000
next table: 2533
cur table: 2937
epoch: 1000
next table: 2201
cur table: 2533
epoch: 1000
next table: 2189
cur table: 2201
epoch: 1000
next table: 2160
cur table: 2189
epoch: 1000
next table: 2142
cur table: 2160
epoch: 1000
next table: 2154
cur table: 2142
epoch: 1000
next table: 2153
cur table: 2154
epoch: 1000
next table: 2110
cur table: 2153
epoch: 1000
next table: 2058
cur table: 2110
epoch: 1000
next table: 2116
cur table: 2058
epoch: 1000
next table: 2103
cur table: 2116
epoch: 1000
next table: 2113
cur table: 2103
epoch: 1000
next table: 2086
cur table: 2113
epoch: 1000
next table: 2119
cur table: 2086
epoch: 1000
next table: 2067
cur table: 2119
epoch: 1000
next table: 2105
cur table: 2067
epoch: 1000
next table: 2145
cur table: 2105
epoch: 1000
next table: 2123
cur table: 2145
epoch: 1000
next table: 2121
cur table: 2123
epoch: 1000
next table: 2062
cur table: 2121
epoch: 1000
next table: 2075
cur table: 2062
epoch: 1000
next table: 2111
cur table: 2075
epoch: 1000
next table: 2124
cur table: 2111
epoch: 1000
next table: 2090
cur table: 2124
epoch: 1000
next table: 2078
cur table: 2090
epoch: 1000
next table: 2106
cur table: 2078
epoch: 1000
next table: 8133
cur table: 28691
epoch: 1000
next table: 2102
cur table: 2106
epoch: 1000
next table: 2121
cur table: 2102
epoch: 1000
next table: 2140
cur table: 2121
epoch: 1000
next table: 2127
cur table: 2140
epoch: 1000
next table: 4503
cur table: 8133
epoch: 1000
next table: 2063
cur table: 2127
epoch: 1000
next table: 2071
cur table: 2063
epoch: 1000
next table: 2128
cur table: 2071
epoch: 1000
next table: 4598
cur table: 4503
epoch: 1000
next table: 2109
cur table: 2128
epoch: 1000
next table: 2117
cur table: 2109
epoch: 1000
next table: 2104
cur table: 2117
epoch: 1000
next table: 3325
cur table: 4598
epoch: 1000
next table: 2134
cur table: 2104
epoch: 1000
next table: 2090
cur table: 2134
epoch: 1000
next table: 3492
cur table: 3325
epoch: 1000
next table: 2117
cur table: 2090
epoch: 1000
next table: 2154
cur table: 2117
epoch: 1000
next table: 2907
cur table: 3492
epoch: 1000
next table: 2132
cur table: 2154
epoch: 1000
next table: 2098
cur table: 2132
epoch: 1000
next table: 2066
cur table: 2098
epoch: 1000
next table: 3189
cur table: 2907
epoch: 1000
next table: 2102
cur table: 2066
epoch: 1000
next table: 2680
cur table: 3189
epoch: 1000
next table: 2105
cur table: 2102
epoch: 1000
next table: 2131
cur table: 2105
epoch: 1000
next table: 2888
cur table: 2680
epoch: 1000
next table: 2081
cur table: 2131
epoch: 1000
next table: 2156
cur table: 2081
epoch: 1000
next table: 2887
cur table: 2888
epoch: 1000
next table: 2088
cur table: 2156
epoch: 1000
next table: 2103
cur table: 2088
epoch: 1000
next table: 2613
cur table: 2887
epoch: 1000
next table: 2153
cur table: 2103
epoch: 1000
next table: 2126
cur table: 2153
epoch: 1000
next table: 2752
cur table: 2613
epoch: 1000
next table: 2130
cur table: 2126
epoch: 1000
next table: 2069
cur table: 2130
epoch: 1000
next table: 2596
cur table: 2752
epoch: 1000
next table: 2102
cur table: 2069
epoch: 1000
next table: 2602
cur table: 2596
epoch: 1000
next table: 2135
cur table: 2102
epoch: 1000
next table: 2129
cur table: 2135
epoch: 1000
next table: 2609
cur table: 2602
epoch: 1000
next table: 2094
cur table: 2129
epoch: 1000
next table: 2135
cur table: 2094
epoch: 1000
next table: 2879
cur table: 2609
epoch: 1000
next table: 2112
cur table: 2135
epoch: 1000
next table: 2106
cur table: 2112
epoch: 1000
next table: 2500
cur table: 2879
epoch: 1000
next table: 2157
cur table: 2106
epoch: 1000
next table: 2516
cur table: 2500
epoch: 1000
next table: 2145
cur table: 2157
epoch: 1000
next table: 2121
cur table: 2145
epoch: 1000
next table: 2636
cur table: 2516
epoch: 1000
next table: 2075
cur table: 2121
epoch: 1000
next table: 2550
cur table: 2636
epoch: 1000
next table: 2085
cur table: 2075
epoch: 1000
next table: 2149
cur table: 2085
epoch: 1000
next table: 2563
cur table: 2550
epoch: 1000
next table: 2125
cur table: 2149
epoch: 1000
next table: 2108
cur table: 2125
epoch: 1000
next table: 2552
cur table: 2563
epoch: 1000
next table: 2098
cur table: 2108
epoch: 1000
next table: 2125
cur table: 2098
epoch: 1000
next table: 2724
cur table: 2552
epoch: 1000
next table: 2099
cur table: 2125
epoch: 1000
next table: 2464
cur table: 2724
epoch: 1000
next table: 2130
cur table: 2099
epoch: 1000
next table: 2154
cur table: 2130
epoch: 1000
next table: 2506
cur table: 2464
epoch: 1000
next table: 2131
cur table: 2154
epoch: 1000
next table: 2611
cur table: 2506
epoch: 1000
next table: 2088
cur table: 2131
epoch: 1000
next table: 2092
cur table: 2088
epoch: 1000
next table: 2464
cur table: 2611
epoch: 1000
next table: 2140
cur table: 2092
epoch: 1000
next table: 2121
cur table: 2140
epoch: 1000
next table: 2540
cur table: 2464
epoch: 1000
next table: 2132
cur table: 2121
epoch: 1000
next table: 2556
cur table: 2540
epoch: 1000
next table: 2096
cur table: 2132
epoch: 1000
next table: 2204
cur table: 2096
epoch: 1000
next table: 2384
cur table: 2556
epoch: 1000
next table: 2078
cur table: 2204
epoch: 1000
next table: 2478
cur table: 2384
epoch: 1000
next table: 2121
cur table: 2078
epoch: 1000
next table: 2163
cur table: 2121
epoch: 1000
next table: 2471
cur table: 2478
epoch: 1000
next table: 2126
cur table: 2163
epoch: 1000
next table: 2539
cur table: 2471
epoch: 1000
next table: 2123
cur table: 2126
epoch: 1000
next table: 2072
cur table: 2123
epoch: 1000
next table: 2493
cur table: 2539
epoch: 1000
next table: 2115
cur table: 2072
epoch: 1000
next table: 2134
cur table: 2115
epoch: 1000
next table: 2549
cur table: 2493
epoch: 1000
next table: 2157
cur table: 2134
epoch: 1000
next table: 2576
cur table: 2549
epoch: 1000
next table: 2098
cur table: 2157
epoch: 1000
next table: 2128
cur table: 2098
epoch: 1000
next table: 2825
cur table: 2576
epoch: 1000
next table: 2113
cur table: 2128
epoch: 1000
next table: 2118
cur table: 2113
epoch: 1000
next table: 2436
cur table: 2825
epoch: 1000
next table: 2151
cur table: 2118
epoch: 1000
next table: 2547
cur table: 2436
epoch: 1000
next table: 2127
cur table: 2151
epoch: 1000
next table: 2142
cur table: 2127
epoch: 1000
next table: 2587
cur table: 2547
epoch: 1000
next table: 2079
cur table: 2142
epoch: 1000
next table: 2096
cur table: 2079
epoch: 1000
next table: 2495
cur table: 2587
epoch: 1000
next table: 2132
cur table: 2096
epoch: 1000
next table: 2588
cur table: 2495
epoch: 1000
next table: 2136
cur table: 2132
epoch: 1000
next table: 2120
cur table: 2136
epoch: 1000
next table: 2541
cur table: 2588
epoch: 1000
next table: 2100
cur table: 2120
epoch: 1000
next table: 2115
cur table: 2100
epoch: 1000
next table: 2701
cur table: 2541
epoch: 1000
next table: 2110
cur table: 2115
epoch: 1000
next table: 2455
cur table: 2701
epoch: 1000
next table: 2128
cur table: 2110
epoch: 1000
next table: 2146
cur table: 2128
epoch: 1000
next table: 2544
cur table: 2455
epoch: 1000
next table: 2148
cur table: 2146
epoch: 1000
next table: 2605
cur table: 2544
epoch: 1000
next table: 2088
cur table: 2148
epoch: 1000
next table: 2099
cur table: 2088
epoch: 1000
next table: 2481
cur table: 2605
epoch: 1000
next table: 2130
cur table: 2099
epoch: 1000
next table: 2120
cur table: 2130
epoch: 1000
next table: 2542
cur table: 2481
epoch: 1000
next table: 2123
cur table: 2120
epoch: 1000
next table: 2593
cur table: 2542
epoch: 1000
next table: 2102
cur table: 2123
epoch: 1000
next table: 2201
cur table: 2102
epoch: 1000
next table: 2621
cur table: 2593
epoch: 1000
next table: 2097
cur table: 2201
epoch: 1000
next table: 2115
cur table: 2097
epoch: 1000
next table: 2451
cur table: 2621
epoch: 1000
next table: 2157
cur table: 2115
epoch: 1000
next table: 2463
cur table: 2451
epoch: 1000
next table: 2138
cur table: 2157
epoch: 1000
next table: 2131
cur table: 2138
epoch: 1000
next table: 2591
cur table: 2463
epoch: 1000
next table: 2088
cur table: 2131
epoch: 1000
next table: 2515
cur table: 2591
epoch: 1000
next table: 2118
cur table: 2088
epoch: 1000
next table: 2125
cur table: 2118
epoch: 1000
next table: 2564
cur table: 2515
epoch: 1000
next table: 2135
cur table: 2125
epoch: 1000
next table: 2103
cur table: 2135
epoch: 1000
next table: 2569
cur table: 2564
epoch: 1000
next table: 2129
cur table: 2103
epoch: 1000
next table: 2237
cur table: 2129
epoch: 1000
next table: 3075
cur table: 2569
epoch: 1000
next table: 2082
cur table: 2237
epoch: 1000
next table: 2454
cur table: 3075
epoch: 1000
next table: 2114
cur table: 2082
epoch: 1000
next table: 2173
cur table: 2114
epoch: 1000
next table: 2540
cur table: 2454
epoch: 1000
next table: 2129
cur table: 2173
epoch: 1000
next table: 2097
cur table: 2129
epoch: 1000
next table: 2578
cur table: 2540
epoch: 1000
next table: 2110
cur table: 2097
epoch: 1000
next table: 2455
cur table: 2578
epoch: 1000
next table: 2128
cur table: 2110
epoch: 1000
next table: 2116
cur table: 2128
epoch: 1000
next table: 2519
cur table: 2455
epoch: 1000
next table: 2142
cur table: 2116
epoch: 1000
next table: 2597
cur table: 2519
epoch: 1000
next table: 2094
cur table: 2142
epoch: 1000
next table: 2258
cur table: 2094
epoch: 1000
next table: 2094
cur table: 2258
epoch: 1000
next table: 3072
cur table: 2597
epoch: 1000
next table: 2109
cur table: 2094
epoch: 1000
next table: 2445
cur table: 3072
epoch: 1000
next table: 2136
cur table: 2109
epoch: 1000
next table: 2154
cur table: 2136
epoch: 1000
next table: 2556
cur table: 2445
epoch: 1000
next table: 2147
cur table: 2154
epoch: 1000
next table: 2575
cur table: 2556
epoch: 1000
next table: 2085
cur table: 2147
epoch: 1000
next table: 2106
cur table: 2085
epoch: 1000
next table: 2507
cur table: 2575
epoch: 1000
next table: 2140
cur table: 2106
epoch: 1000
next table: 2140
cur table: 2140
epoch: 1000
next table: 2506
cur table: 2507
epoch: 1000
next table: 2127
cur table: 2140
epoch: 1000
next table: 2588
cur table: 2506
epoch: 1000
next table: 2113
cur table: 2127
epoch: 1000
next table: 2120
cur table: 2113
epoch: 1000
next table: 2621
cur table: 2588
epoch: 1000
next table: 2097
cur table: 2120
epoch: 1000
next table: 2439
cur table: 2621
epoch: 1000
next table: 2133
cur table: 2097
epoch: 1000
next table: 2179
cur table: 2133
epoch: 1000
next table: 2546
cur table: 2439
epoch: 1000
next table: 2148
cur table: 2179
epoch: 1000
next table: 2096
cur table: 2148
epoch: 1000
next table: 2577
cur table: 2546
epoch: 1000
next table: 2108
cur table: 2096
epoch: 1000
next table: 2520
cur table: 2577
epoch: 1000
next table: 2142
cur table: 2108
epoch: 1000
next table: 2132
cur table: 2142
epoch: 1000
next table: 2556
cur table: 2520
epoch: 1000
next table: 2132
cur table: 2132
epoch: 1000
next table: 2112
cur table: 2132
epoch: 1000
next table: 2777
cur table: 2556
epoch: 1000
next table: 2140
cur table: 2112
epoch: 1000
next table: 2459
cur table: 2777
epoch: 1000
next table: 2087
cur table: 2140
epoch: 1000
next table: 2127
cur table: 2087
epoch: 1000
next table: 2440
cur table: 2459
epoch: 1000
next table: 2192
cur table: 2127
epoch: 1000
next table: 2135
cur table: 2192
epoch: 1000
next table: 2599
cur table: 2440
epoch: 1000
next table: 2089
cur table: 2135
epoch: 1000
next table: 2551
cur table: 2599
epoch: 1000
next table: 2101
cur table: 2089
epoch: 1000
next table: 2130
cur table: 2101
epoch: 1000
next table: 2547
cur table: 2551
epoch: 1000
next table: 2137
cur table: 2130
epoch: 1000
next table: 2544
cur table: 2547
epoch: 1000
next table: 2139
cur table: 2137
epoch: 1000
next table: 2115
cur table: 2139
epoch: 1000
next table: 2791
cur table: 2544
epoch: 1000
next table: 2161
cur table: 2115
epoch: 1000
next table: 2101
cur table: 2161
epoch: 1000
next table: 2494
cur table: 2791
epoch: 1000
next table: 2135
cur table: 2101
epoch: 1000
next table: 2486
cur table: 2494
epoch: 1000
next table: 2185
cur table: 2135
epoch: 1000
next table: 2149
cur table: 2185
epoch: 1000
next table: 2637
cur table: 2486
epoch: 1000
next table: 2097
cur table: 2149
epoch: 1000
next table: 2114
cur table: 2097
epoch: 1000
next table: 2510
cur table: 2637
epoch: 1000
next table: 2127
cur table: 2114
epoch: 1000
next table: 2585
cur table: 2510
epoch: 1000
next table: 2145
cur table: 2127
epoch: 1000
next table: 2130
cur table: 2145
epoch: 1000
next table: 2624
cur table: 2585
epoch: 1000
next table: 2100
cur table: 2130
epoch: 1000
next table: 2193
cur table: 2100
epoch: 1000
next table: 2891
cur table: 2624
epoch: 1000
next table: 2115
cur table: 2193
epoch: 1000
next table: 2130
cur table: 2115
epoch: 1000
next table: 2417
cur table: 2891
epoch: 1000
next table: 2168
cur table: 2130
epoch: 1000
next table: 2460
cur table: 2417
epoch: 1000
next table: 2151
cur table: 2168
epoch: 1000
next table: 2135
cur table: 2151
epoch: 1000
next table: 2622
cur table: 2460
epoch: 1000
next table: 2085
cur table: 2135
epoch: 1000
next table: 2463
cur table: 2622
epoch: 1000
next table: 2111
cur table: 2085
epoch: 1000
next table: 2135
cur table: 2111
epoch: 1000
next table: 2550
cur table: 2463
epoch: 1000
next table: 2149
cur table: 2135
epoch: 1000
next table: 2115
cur table: 2149
epoch: 1000
next table: 2583
cur table: 2550
epoch: 1000
next table: 2126
cur table: 2115
epoch: 1000
next table: 2716
cur table: 2583
epoch: 1000
next table: 2110
cur table: 2126
epoch: 1000
next table: 2115
cur table: 2110
epoch: 1000
next table: 2443
cur table: 2716
epoch: 1000
next table: 2146
cur table: 2115
epoch: 1000
next table: 2166
cur table: 2146
epoch: 1000
next table: 2556
cur table: 2443
epoch: 1000
next table: 2132
cur table: 2166
epoch: 1000
next table: 2571
cur table: 2556
epoch: 1000
next table: 2100
cur table: 2132
epoch: 1000
next table: 2107
cur table: 2100
epoch: 1000
next table: 2482
cur table: 2571
epoch: 1000
next table: 2131
cur table: 2107
epoch: 1000
next table: 2556
cur table: 2482
epoch: 1000
next table: 2141
cur table: 2131
epoch: 1000
next table: 2138
cur table: 2141
epoch: 1000
next table: 2568
cur table: 2556
epoch: 1000
next table: 2093
cur table: 2138
epoch: 1000
next table: 2231
cur table: 2093
epoch: 1000
next table: 2957
cur table: 2568
epoch: 1000
next table: 2090
cur table: 2231
epoch: 1000
next table: 2101
cur table: 2090
epoch: 1000
next table: 2437
cur table: 2957
epoch: 1000
next table: 2151
cur table: 2101
epoch: 1000
next table: 2536
cur table: 2437
epoch: 1000
next table: 2138
cur table: 2151
epoch: 1000
next table: 2111
cur table: 2138
epoch: 1000
next table: 2556
cur table: 2536
epoch: 1000
next table: 2087
cur table: 2111
epoch: 1000
next table: 2536
cur table: 2556
epoch: 1000
next table: 2121
cur table: 2087
epoch: 1000
next table: 2125
cur table: 2121
epoch: 1000
next table: 2545
cur table: 2536
epoch: 1000
next table: 2158
cur table: 2125
epoch: 1000
next table: 2104
cur table: 2158
epoch: 1000
next table: 2629
cur table: 2545
epoch: 1000
next table: 2136
cur table: 2104
epoch: 1000
next table: 2300
cur table: 2136
epoch: 1000
next table: 3023
cur table: 2629
epoch: 1000
next table: 2089
cur table: 2300
epoch: 1000
next table: 2116
cur table: 2089
epoch: 1000
next table: 2491
cur table: 3023
epoch: 1000
next table: 2171
cur table: 2116
epoch: 1000
next table: 2598
cur table: 2491
epoch: 1000
next table: 2133
cur table: 2171
epoch: 1000
next table: 2104
cur table: 2133
epoch: 1000
next table: 2572
cur table: 2598
epoch: 1000
next table: 2120
cur table: 2104
epoch: 1000
next table: 2539
cur table: 2572
epoch: 1000
next table: 2116
cur table: 2120
epoch: 1000
next table: 2135
cur table: 2116
epoch: 1000
next table: 2611
cur table: 2539
epoch: 1000
next table: 2139
cur table: 2135
epoch: 1000
next table: 2122
cur table: 2139
epoch: 1000
next table: 2774
cur table: 2611
epoch: 1000
next table: 2149
cur table: 2122
epoch: 1000
next table: 2095
cur table: 2149
epoch: 1000
next table: 2468
cur table: 2774
epoch: 1000
next table: 2119
cur table: 2095
epoch: 1000
next table: 2422
cur table: 2468
epoch: 1000
next table: 2178
cur table: 2119
epoch: 1000
next table: 2151
cur table: 2178
epoch: 1000
next table: 2573
cur table: 2422
epoch: 1000
next table: 2095
cur table: 2151
epoch: 1000
next table: 2507
cur table: 2573
epoch: 1000
next table: 2121
cur table: 2095
epoch: 1000
next table: 2127
cur table: 2121
epoch: 1000
next table: 2620
cur table: 2507
epoch: 1000
next table: 2129
cur table: 2127
epoch: 1000
next table: 2145
cur table: 2129
epoch: 1000
next table: 2562
cur table: 2620
epoch: 1000
next table: 2109
cur table: 2145
epoch: 1000
next table: 2153
cur table: 2109
epoch: 1000
next table: 2766
cur table: 2562
epoch: 1000
next table: 2092
cur table: 2153
epoch: 1000
next table: 2491
cur table: 2766
epoch: 1000
next table: 2115
cur table: 2092
epoch: 1000
next table: 2159
cur table: 2115
epoch: 1000
next table: 2529
cur table: 2491
epoch: 1000
next table: 2148
cur table: 2159
epoch: 1000
next table: 2622
cur table: 2529
epoch: 1000
next table: 2095
cur table: 2148
epoch: 1000
next table: 2127
cur table: 2095
epoch: 1000
next table: 2513
cur table: 2622
epoch: 1000
next table: 2127
cur table: 2127
epoch: 1000
next table: 2149
cur table: 2127
epoch: 1000
next table: 2580
cur table: 2513
epoch: 1000
next table: 2146
cur table: 2149
epoch: 1000
next table: 2590
cur table: 2580
epoch: 1000
next table: 2109
cur table: 2146
epoch: 1000
next table: 2147
cur table: 2109
epoch: 1000
next table: 2735
cur table: 2590
epoch: 1000
next table: 2096
cur table: 2147
epoch: 1000
next table: 2126
cur table: 2096
epoch: 1000
next table: 2469
cur table: 2735
epoch: 1000
next table: 2166
cur table: 2126
epoch: 1000
next table: 2605
cur table: 2469
epoch: 1000
next table: 2142
cur table: 2166
epoch: 1000
next table: 2091
cur table: 2142
epoch: 1000
next table: 2551
cur table: 2605
epoch: 1000
next table: 2122
cur table: 2091
epoch: 1000
next table: 2127
cur table: 2122
epoch: 1000
next table: 2522
cur table: 2551
epoch: 1000
next table: 2140
cur table: 2127
epoch: 1000
next table: 2597
cur table: 2522
epoch: 1000
next table: 2146
cur table: 2140
epoch: 1000
next table: 2096
cur table: 2146
epoch: 1000
next table: 2804
cur table: 2597
epoch: 1000
next table: 2168
cur table: 2096
epoch: 1000
next table: 2087
cur table: 2168
epoch: 1000
next table: 2464
cur table: 2804
epoch: 1000
next table: 2125
cur table: 2087
epoch: 1000
next table: 2495
cur table: 2464
epoch: 1000
next table: 2168
cur table: 2125
epoch: 1000
next table: 2169
cur table: 2168
epoch: 1000
next table: 2574
cur table: 2495
epoch: 1000
next table: 2101
cur table: 2169
epoch: 1000
next table: 2107
cur table: 2101
epoch: 1000
next table: 2497
cur table: 2574
epoch: 1000
next table: 2118
cur table: 2107
epoch: 1000
next table: 2596
cur table: 2497
epoch: 1000
next table: 2140
cur table: 2118
epoch: 1000
next table: 2162
cur table: 2140
epoch: 1000
next table: 2558
cur table: 2596
epoch: 1000
next table: 2108
cur table: 2162
epoch: 1000
next table: 2158
cur table: 2108
epoch: 1000
next table: 2786
cur table: 2558
epoch: 1000
next table: 2079
cur table: 2158
epoch: 1000
next table: 2497
cur table: 2786
epoch: 1000
next table: 2114
cur table: 2079
epoch: 1000
next table: 2154
cur table: 2114
epoch: 1000
next table: 2517
cur table: 2497
epoch: 1000
next table: 2141
cur table: 2154
epoch: 1000
next table: 2114
cur table: 2141
epoch: 1000
next table: 2614
cur table: 2517
epoch: 1000
next table: 2110
cur table: 2114
epoch: 1000
next table: 2488
cur table: 2614
epoch: 1000
next table: 2133
cur table: 2110
epoch: 1000
next table: 2134
cur table: 2133
epoch: 1000
next table: 2560
cur table: 2488
epoch: 1000
next table: 2158
cur table: 2134
epoch: 1000
next table: 2571
cur table: 2560
epoch: 1000
next table: 2108
cur table: 2158
epoch: 1000
next table: 2153
cur table: 2108
epoch: 1000
next table: 2654
cur table: 2571
epoch: 1000
next table: 2080
cur table: 2153
epoch: 1000
next table: 2102
cur table: 2080
epoch: 1000
next table: 2458
cur table: 2654
epoch: 1000
next table: 2170
cur table: 2102
epoch: 1000
next table: 2511
cur table: 2458
epoch: 1000
next table: 2150
cur table: 2170
epoch: 1000
next table: 2121
cur table: 2150
epoch: 1000
next table: 2562
cur table: 2511
epoch: 1000
next table: 2092
cur table: 2121
epoch: 1000
next table: 2132
cur table: 2092
epoch: 1000
next table: 2485
cur table: 2562
epoch: 1000
next table: 2149
cur table: 2132
epoch: 1000
next table: 2506
cur table: 2485
epoch: 1000
next table: 2166
cur table: 2149
epoch: 1000
next table: 2105
cur table: 2166
epoch: 1000
next table: 2614
cur table: 2506
epoch: 1000
next table: 2154
cur table: 2105
epoch: 1000
next table: 2080
cur table: 2154
epoch: 1000
next table: 2741
cur table: 2614
epoch: 1000
next table: 2109
cur table: 2080
epoch: 1000
next table: 2470
cur table: 2741
epoch: 1000
next table: 2172
cur table: 2109
epoch: 1000
next table: 2165
cur table: 2172
epoch: 1000
next table: 2591
cur table: 2470
epoch: 1000
next table: 2122
cur table: 2165
epoch: 1000
next table: 2096
cur table: 2122
epoch: 1000
next table: 2578
cur table: 2591
epoch: 1000
next table: 2130
cur table: 2096
epoch: 1000
next table: 2499
cur table: 2578
epoch: 1000
next table: 2145
cur table: 2130
epoch: 1000
next table: 2158
cur table: 2145
epoch: 1000
next table: 2487
cur table: 2499
epoch: 1000
next table: 2102
cur table: 2158
epoch: 1000
next table: 2134
cur table: 2102
epoch: 1000
next table: 2819
cur table: 2487
epoch: 1000
next table: 2111
cur table: 2134
epoch: 1000
next table: 2477
cur table: 2819
epoch: 1000
next table: 2111
cur table: 2111
epoch: 1000
next table: 2168
cur table: 2111
epoch: 1000
next table: 2468
cur table: 2477
epoch: 1000
next table: 2142
cur table: 2168
epoch: 1000
next table: 2627
cur table: 2468
epoch: 1000
next table: 2131
cur table: 2142
epoch: 1000
next table: 2092
cur table: 2131
epoch: 1000
next table: 2481
cur table: 2627
epoch: 1000
next table: 2119
cur table: 2092
epoch: 1000
next table: 2143
cur table: 2119
epoch: 1000
next table: 2575
cur table: 2481
epoch: 1000
next table: 2161
cur table: 2143
epoch: 1000
next table: 2557
cur table: 2575
epoch: 1000
next table: 2121
cur table: 2161
epoch: 1000
next table: 2137
cur table: 2121
epoch: 1000
next table: 2793
cur table: 2557
epoch: 1000
next table: 2096
cur table: 2137
epoch: 1000
next table: 2111
cur table: 2096
epoch: 1000
next table: 2460
cur table: 2793
epoch: 1000
next table: 2147
cur table: 2111
epoch: 1000
next table: 2547
cur table: 2460
epoch: 1000
next table: 2139
cur table: 2147
epoch: 1000
next table: 2140
cur table: 2139
epoch: 1000
next table: 2624
cur table: 2547
epoch: 1000
next table: 2090
cur table: 2140
epoch: 1000
next table: 2121
cur table: 2090
epoch: 1000
next table: 2453
cur table: 2624
epoch: 1000
next table: 2145
cur table: 2121
epoch: 1000
next table: 2536
cur table: 2453
epoch: 1000
next table: 2165
cur table: 2145
epoch: 1000
next table: 2125
cur table: 2165
epoch: 1000
next table: 2516
cur table: 2536
epoch: 1000
next table: 2109
cur table: 2125
epoch: 1000
next table: 2118
cur table: 2109
epoch: 1000
next table: 2765
cur table: 2516
epoch: 1000
next table: 2091
cur table: 2118
epoch: 1000
next table: 2468
cur table: 2765
epoch: 1000
next table: 2150
cur table: 2091
epoch: 1000
next table: 2144
cur table: 2150
epoch: 1000
next table: 2593
cur table: 2468
epoch: 1000
next table: 2134
cur table: 2144
epoch: 1000
next table: 2576
cur table: 2593
epoch: 1000
next table: 2092
cur table: 2134
epoch: 1000
next table: 2129
cur table: 2092
epoch: 1000
next table: 2525
cur table: 2576
epoch: 1000
next table: 2139
cur table: 2129
epoch: 1000
next table: 2145
cur table: 2139
epoch: 1000
next table: 2559
cur table: 2525
epoch: 1000
next table: 2132
cur table: 2145
epoch: 1000
next table: 2111
cur table: 2132
epoch: 1000
next table: 2781
cur table: 2559
epoch: 1000
next table: 2129
cur table: 2111
epoch: 1000
next table: 2420
cur table: 2781
epoch: 1000
next table: 2084
cur table: 2129
epoch: 1000
next table: 2132
cur table: 2084
epoch: 1000
next table: 2408
cur table: 2420
epoch: 1000
next table: 2164
cur table: 2132
epoch: 1000
next table: 2544
cur table: 2408
epoch: 1000
next table: 2147
cur table: 2164
epoch: 1000
next table: 2099
cur table: 2147
epoch: 1000
next table: 2596
cur table: 2544
epoch: 1000
next table: 2098
cur table: 2099
epoch: 1000
next table: 2509
cur table: 2596
epoch: 1000
next table: 2137
cur table: 2098
epoch: 1000
next table: 2143
cur table: 2137
epoch: 1000
next table: 2506
cur table: 2509
epoch: 1000
next table: 2145
cur table: 2143
epoch: 1000
next table: 2120
cur table: 2145
epoch: 1000
next table: 2788
cur table: 2506
epoch: 1000
next table: 2117
cur table: 2120
epoch: 1000
next table: 2546
cur table: 2788
epoch: 1000
next table: 2088
cur table: 2117
epoch: 1000
next table: 2130
cur table: 2088
epoch: 1000
next table: 2465
cur table: 2546
epoch: 1000
next table: 2169
cur table: 2130
epoch: 1000
next table: 2154
cur table: 2169
epoch: 1000
next table: 2616
cur table: 2465
epoch: 1000
next table: 2097
cur table: 2154
epoch: 1000
next table: 2554
cur table: 2616
epoch: 1000
next table: 2114
cur table: 2097
epoch: 1000
next table: 2127
cur table: 2114
epoch: 1000
next table: 2554
cur table: 2554
epoch: 1000
next table: 2123
cur table: 2127
epoch: 1000
next table: 2153
cur table: 2123
epoch: 1000
next table: 2535
cur table: 2554
epoch: 1000
next table: 2121
cur table: 2153
epoch: 1000
next table: 2130
cur table: 2121
epoch: 1000
next table: 2866
cur table: 2535
epoch: 1000
next table: 2083
cur table: 2130
epoch: 1000
next table: 2449
cur table: 2866
epoch: 1000
next table: 2103
cur table: 2083
epoch: 1000
next table: 2152
cur table: 2103
epoch: 1000
next table: 2501
cur table: 2449
epoch: 1000
next table: 2172
cur table: 2152
epoch: 1000
next table: 2615
cur table: 2501
epoch: 1000
next table: 2099
cur table: 2172
epoch: 1000
next table: 2105
cur table: 2099
epoch: 1000
next table: 2493
cur table: 2615
epoch: 1000
next table: 2129
cur table: 2105
epoch: 1000
next table: 2142
cur table: 2129
epoch: 1000
next table: 2573
cur table: 2493
epoch: 1000
next table: 2154
cur table: 2142
epoch: 1000
next table: 2599
cur table: 2573
epoch: 1000
next table: 2116
cur table: 2154
epoch: 1000
next table: 2144
cur table: 2116
epoch: 1000
next table: 2742
cur table: 2599
epoch: 1000
next table: 2085
cur table: 2144
epoch: 1000
next table: 2110
cur table: 2085
epoch: 1000
next table: 2480
cur table: 2742
epoch: 1000
next table: 2159
cur table: 2110
epoch: 1000
next table: 2593
cur table: 2480
epoch: 1000
next table: 2148
cur table: 2159
epoch: 1000
next table: 2108
cur table: 2148
epoch: 1000
next table: 2629
cur table: 2593
epoch: 1000
next table: 2117
cur table: 2108
epoch: 1000
next table: 2127
cur table: 2117
epoch: 1000
next table: 2490
cur table: 2629
epoch: 1000
next table: 2129
cur table: 2127
epoch: 1000
next table: 2560
cur table: 2490
epoch: 1000
next table: 2155
cur table: 2129
epoch: 1000
next table: 2108
cur table: 2155
epoch: 1000
next table: 2930
cur table: 2560
epoch: 1000
next table: 2163
cur table: 2108
epoch: 1000
next table: 2077
cur table: 2163
epoch: 1000
next table: 2483
cur table: 2930
epoch: 1000
next table: 2117
cur table: 2077
epoch: 1000
next table: 2472
cur table: 2483
epoch: 1000
next table: 2151
cur table: 2117
epoch: 1000
next table: 2153
cur table: 2151
epoch: 1000
next table: 2560
cur table: 2472
epoch: 1000
next table: 2112
cur table: 2153
epoch: 1000
next table: 2113
cur table: 2112
epoch: 1000
next table: 2535
cur table: 2560
epoch: 1000
next table: 2120
cur table: 2113
epoch: 1000
next table: 2530
cur table: 2535
epoch: 1000
next table: 2138
cur table: 2120
epoch: 1000
next table: 2160
cur table: 2138
epoch: 1000
next table: 2535
cur table: 2530
epoch: 1000
next table: 2112
cur table: 2160
epoch: 1000
next table: 2162
cur table: 2112
epoch: 1000
next table: 2844
cur table: 2535
epoch: 1000
next table: 2094
cur table: 2162
epoch: 1000
next table: 2403
cur table: 2844
epoch: 1000
next table: 2116
cur table: 2094
epoch: 1000
next table: 2166
cur table: 2116
epoch: 1000
next table: 2508
cur table: 2403
epoch: 1000
next table: 2136
cur table: 2166
epoch: 1000
next table: 2126
cur table: 2136
epoch: 1000
next table: 2612
cur table: 2508
epoch: 1000
next table: 2106
cur table: 2126
epoch: 1000
next table: 2487
cur table: 2612
epoch: 1000
next table: 2124
cur table: 2106
epoch: 1000
next table: 2150
cur table: 2124
epoch: 1000
next table: 2543
cur table: 2487
epoch: 1000
next table: 2157
cur table: 2150
epoch: 1000
next table: 2603
cur table: 2543
epoch: 1000
next table: 2104
cur table: 2157
epoch: 1000
next table: 2154
cur table: 2104
epoch: 1000
next table: 2721
cur table: 2603
epoch: 1000
next table: 2108
cur table: 2154
epoch: 1000
next table: 2123
cur table: 2108
epoch: 1000
next table: 2430
cur table: 2721
epoch: 1000
next table: 2161
cur table: 2123
epoch: 1000
next table: 2559
cur table: 2430
epoch: 1000
next table: 2163
cur table: 2161
epoch: 1000
next table: 2132
cur table: 2163
epoch: 1000
next table: 2617
cur table: 2559
epoch: 1000
next table: 2094
cur table: 2132
epoch: 1000
next table: 2134
cur table: 2094
epoch: 1000
next table: 2487
cur table: 2617
epoch: 1000
next table: 2154
cur table: 2134
epoch: 1000
next table: 2509
cur table: 2487
epoch: 1000
next table: 2165
cur table: 2154
epoch: 1000
next table: 2123
cur table: 2165
epoch: 1000
next table: 2559
cur table: 2509
epoch: 1000
next table: 2147
cur table: 2123
epoch: 1000
next table: 2133
cur table: 2147
epoch: 1000
next table: 2555
cur table: 2559
epoch: 1000
next table: 2120
cur table: 2133
epoch: 1000
next table: 2483
cur table: 2555
epoch: 1000
next table: 2161
cur table: 2120
epoch: 1000
next table: 2145
cur table: 2161
epoch: 1000
next table: 2528
cur table: 2483
epoch: 1000
next table: 2135
cur table: 2145
epoch: 1000
next table: 2572
cur table: 2528
epoch: 1000
next table: 2109
cur table: 2135
epoch: 1000
next table: 2125
cur table: 2109
epoch: 1000
next table: 2550
cur table: 2572
epoch: 1000
next table: 2137
cur table: 2125
epoch: 1000
next table: 2156
cur table: 2137
epoch: 1000
next table: 2550
cur table: 2550
epoch: 1000
next table: 2138
cur table: 2156
epoch: 1000
next table: 2121
cur table: 2138
epoch: 1000
next table: 2967
cur table: 2550
epoch: 1000
next table: 2097
cur table: 2121
epoch: 1000
next table: 2077
cur table: 2967
epoch: 1000
next table: 2080
cur table: 2097
epoch: 1000
next table: 2131
cur table: 2077
epoch: 1000
next table: 2053
cur table: 2080
epoch: 1000
next table: 2158
cur table: 2131
epoch: 1000
next table: 2073
cur table: 2053
epoch: 1000
next table: 2345
cur table: 2158
epoch: 1000
next table: 2069
cur table: 2073
epoch: 1000
next table: 2030
cur table: 2069
epoch: 1000
next table: 2264
cur table: 2345
epoch: 1000
next table: 2022
cur table: 2030
epoch: 1000
next table: 2126
cur table: 2264
epoch: 1000
next table: 2015
cur table: 2022
epoch: 1000
next table: 2107
cur table: 2126
epoch: 1000
next table: 2015
cur table: 2015
epoch: 1000
next table: 2022
cur table: 2107
epoch: 1000
next table: 2020
cur table: 2015
epoch: 1000
next table: 2089
cur table: 2022
epoch: 1000
next table: 2031
cur table: 2020
epoch: 1000
next table: 2300
cur table: 2089
epoch: 1000
next table: 2012
cur table: 2031
epoch: 1000
next table: 2166
cur table: 2300
epoch: 1000
next table: 2007
cur table: 2012
epoch: 1000
next table: 2056
cur table: 2166
epoch: 1000
next table: 2007
cur table: 2007
epoch: 1000
next table: 2010
cur table: 2007
epoch: 1000
next table: 2058
cur table: 2056
epoch: 1000
next table: 2003
cur table: 2010
epoch: 1000
next table: 2080
cur table: 2058
epoch: 1000
next table: 2007
cur table: 2003
epoch: 1000
next table: 2215
cur table: 2080
epoch: 1000
next table: 2004
cur table: 2007
epoch: 1000
next table: 1981
cur table: 2215
epoch: 1000
next table: 2000
cur table: 2004
epoch: 1000
next table: 1995
cur table: 1981
epoch: 1000
next table: 2008
cur table: 2000
epoch: 1000
next table: 2060
cur table: 1995
epoch: 1000
next table: 2004
cur table: 2008
epoch: 1000
next table: 2035
cur table: 2060
epoch: 1000
next table: 2005
cur table: 2004
epoch: 1000
next table: 2146
cur table: 2035
epoch: 1000
next table: 2010
cur table: 2005
epoch: 1000
next table: 2172
cur table: 2146
epoch: 1000
next table: 2006
cur table: 2010
epoch: 1000
next table: 2266
cur table: 2172
epoch: 1000
next table: 2009
cur table: 2006
epoch: 1000
next table: 2018
cur table: 2009
epoch: 1000
next table: 2197
cur table: 2266
epoch: 1000
next table: 2014
cur table: 2018
epoch: 1000
next table: 2363
cur table: 2197
epoch: 1000
next table: 2004
cur table: 2014
epoch: 1000
next table: 2268
cur table: 2363
epoch: 1000
next table: 2002
cur table: 2004
epoch: 1000
next table: 2027
cur table: 2002
epoch: 1000
next table: 2208
cur table: 2268
epoch: 1000
next table: 2185
cur table: 2027
epoch: 1000
next table: 2272
cur table: 2208
epoch: 1000
next table: 2126
cur table: 2185
epoch: 1000
next table: 2299
cur table: 2272
epoch: 1000
next table: 2131
cur table: 2126
epoch: 1000
next table: 2258
cur table: 2299
epoch: 1000
next table: 2156
cur table: 2131
epoch: 1000
next table: 2142
cur table: 2156
epoch: 1000
next table: 2334
cur table: 2258
epoch: 1000
next table: 2035
cur table: 2142
epoch: 1000
next table: 2117
cur table: 2334
epoch: 1000
next table: 2004
cur table: 2035
epoch: 1000
next table: 2227
cur table: 2117
epoch: 1000
next table: 2107
cur table: 2004
epoch: 1000
next table: 2119
cur table: 2107
epoch: 1000
next table: 2339
cur table: 2227
epoch: 1000
next table: 2111
cur table: 2119
epoch: 1000
next table: 2359
cur table: 2339
epoch: 1000
next table: 2064
cur table: 2111
epoch: 1000
next table: 2166
cur table: 2064
epoch: 1000
next table: 2597
cur table: 2359
epoch: 1000
next table: 2131
cur table: 2166
epoch: 1000
next table: 2416
cur table: 2597
epoch: 1000
next table: 2129
cur table: 2131
epoch: 1000
next table: 2155
cur table: 2129
epoch: 1000
next table: 2552
cur table: 2416
epoch: 1000
next table: 2133
cur table: 2155
epoch: 1000
next table: 2101
cur table: 2133
epoch: 1000
next table: 2572
cur table: 2552
epoch: 1000
next table: 2055
cur table: 2101
epoch: 1000
next table: 2451
cur table: 2572
epoch: 1000
next table: 2103
cur table: 2055
epoch: 1000
next table: 2126
cur table: 2103
epoch: 1000
next table: 2562
cur table: 2451
epoch: 1000
next table: 2127
cur table: 2126
epoch: 1000
next table: 2597
cur table: 2562
epoch: 1000
next table: 2080
cur table: 2127
epoch: 1000
next table: 2126
cur table: 2080
epoch: 1000
next table: 2882
cur table: 2597
epoch: 1000
next table: 2136
cur table: 2126
epoch: 1000
next table: 2092
cur table: 2136
epoch: 1000
next table: 2424
cur table: 2882
epoch: 1000
next table: 2145
cur table: 2092
epoch: 1000
next table: 2536
cur table: 2424
epoch: 1000
next table: 2151
cur table: 2145
epoch: 1000
next table: 2137
cur table: 2151
epoch: 1000
next table: 2588
cur table: 2536
epoch: 1000
next table: 2073
cur table: 2137
epoch: 1000
next table: 2072
cur table: 2073
epoch: 1000
next table: 2439
cur table: 2588
epoch: 1000
next table: 2136
cur table: 2072
epoch: 1000
next table: 2536
cur table: 2439
epoch: 1000
next table: 2127
cur table: 2136
epoch: 1000
next table: 2105
cur table: 2127
epoch: 1000
next table: 2617
cur table: 2536
epoch: 1000
next table: 2094
cur table: 2105
epoch: 1000
next table: 2149
cur table: 2094
epoch: 1000
next table: 2866
cur table: 2617
epoch: 1000
next table: 2095
cur table: 2149
epoch: 1000
next table: 2460
cur table: 2866
epoch: 1000
next table: 2114
cur table: 2095
epoch: 1000
next table: 2155
cur table: 2114
epoch: 1000
next table: 2532
cur table: 2460
epoch: 1000
next table: 2140
cur table: 2155
epoch: 1000
next table: 2104
cur table: 2140
epoch: 1000
next table: 2587
cur table: 2532
epoch: 1000
next table: 2060
cur table: 2104
epoch: 1000
next table: 2506
cur table: 2587
epoch: 1000
next table: 2104
cur table: 2060
epoch: 1000
next table: 2143
cur table: 2104
epoch: 1000
next table: 2541
cur table: 2506
epoch: 1000
next table: 2123
cur table: 2143
epoch: 1000
next table: 2612
cur table: 2541
epoch: 1000
next table: 2080
cur table: 2123
epoch: 1000
next table: 2163
cur table: 2080
epoch: 1000
next table: 2774
cur table: 2612
epoch: 1000
next table: 2081
cur table: 2163
epoch: 1000
next table: 2125
cur table: 2081
epoch: 1000
next table: 2452
cur table: 2774
epoch: 1000
next table: 2156
cur table: 2125
epoch: 1000
next table: 2140
cur table: 2156
epoch: 1000
next table: 2594
cur table: 2452
epoch: 1000
next table: 2141
cur table: 2140
epoch: 1000
next table: 2580
cur table: 2594
epoch: 1000
next table: 2075
cur table: 2141
epoch: 1000
next table: 2099
cur table: 2075
epoch: 1000
next table: 2464
cur table: 2580
epoch: 1000
next table: 2143
cur table: 2099
epoch: 1000
next table: 2557
cur table: 2464
epoch: 1000
next table: 2141
cur table: 2143
epoch: 1000
next table: 2083
cur table: 2141
epoch: 1000
next table: 2625
cur table: 2557
epoch: 1000
next table: 2182
cur table: 2083
epoch: 1000
next table: 2103
cur table: 2182
epoch: 1000
next table: 2740
cur table: 2625
epoch: 1000
next table: 2100
cur table: 2103
epoch: 1000
next table: 2464
cur table: 2740
epoch: 1000
next table: 2150
cur table: 2100
epoch: 1000
next table: 2159
cur table: 2150
epoch: 1000
next table: 2622
cur table: 2464
epoch: 1000
next table: 2115
cur table: 2159
epoch: 1000
next table: 2081
cur table: 2115
epoch: 1000
next table: 2549
cur table: 2622
epoch: 1000
next table: 2090
cur table: 2081
epoch: 1000
next table: 2512
cur table: 2549
epoch: 1000
next table: 2119
cur table: 2090
epoch: 1000
next table: 2138
cur table: 2119
epoch: 1000
next table: 2550
cur table: 2512
epoch: 1000
next table: 2077
cur table: 2138
epoch: 1000
next table: 2088
cur table: 2077
epoch: 1000
next table: 2823
cur table: 2550
epoch: 1000
next table: 2093
cur table: 2088
epoch: 1000
next table: 2280
cur table: 2823
epoch: 1000
next table: 2033
cur table: 2093
epoch: 1000
next table: 2304
cur table: 2280
epoch: 1000
next table: 2303
cur table: 2033
epoch: 1000
next table: 2067
cur table: 2303
epoch: 1000
next table: 2505
cur table: 2304
epoch: 1000
next table: 2114
cur table: 2067
epoch: 1000
next table: 2157
cur table: 2114
epoch: 1000
next table: 2470
cur table: 2505
epoch: 1000
next table: 2132
cur table: 2157
epoch: 1000
next table: 2652
cur table: 2470
epoch: 1000
next table: 2130
cur table: 2132
epoch: 1000
next table: 2056
cur table: 2130
epoch: 1000
next table: 2531
cur table: 2652
epoch: 1000
next table: 2082
cur table: 2056
epoch: 1000
next table: 2119
cur table: 2082
epoch: 1000
next table: 2545
cur table: 2531
epoch: 1000
next table: 2122
cur table: 2119
epoch: 1000
next table: 2606
cur table: 2545
epoch: 1000
next table: 2093
cur table: 2122
epoch: 1000
next table: 2098
cur table: 2093
epoch: 1000
next table: 2584
cur table: 2606
epoch: 1000
next table: 2082
cur table: 2098
epoch: 1000
next table: 2476
cur table: 2584
epoch: 1000
next table: 2120
cur table: 2082
epoch: 1000
next table: 2153
cur table: 2120
epoch: 1000
next table: 2575
cur table: 2476
epoch: 1000
next table: 2117
cur table: 2153
epoch: 1000
next table: 2144
cur table: 2117
epoch: 1000
next table: 2597
cur table: 2575
epoch: 1000
next table: 2074
cur table: 2144
epoch: 1000
next table: 2517
cur table: 2597
epoch: 1000
next table: 2103
cur table: 2074
epoch: 1000
next table: 2117
cur table: 2103
epoch: 1000
next table: 2523
cur table: 2517
epoch: 1000
next table: 2121
cur table: 2117
epoch: 1000
next table: 2090
cur table: 2121
epoch: 1000
next table: 2653
cur table: 2523
epoch: 1000
next table: 2096
cur table: 2090
epoch: 1000
next table: 2778
cur table: 2653
epoch: 1000
next table: 2165
cur table: 2096
epoch: 1000
next table: 2089
cur table: 2165
epoch: 1000
next table: 2481
cur table: 2778
epoch: 1000
next table: 2135
cur table: 2089
epoch: 1000
next table: 2149
cur table: 2135
epoch: 1000
next table: 2588
cur table: 2481
epoch: 1000
next table: 2158
cur table: 2149
epoch: 1000
next table: 2626
cur table: 2588
epoch: 1000
next table: 2092
cur table: 2158
epoch: 1000
next table: 2082
cur table: 2092
epoch: 1000
next table: 2457
cur table: 2626
epoch: 1000
next table: 2133
cur table: 2082
epoch: 1000
next table: 2127
cur table: 2133
epoch: 1000
next table: 2606
cur table: 2457
epoch: 1000
next table: 2122
cur table: 2127
epoch: 1000
next table: 2622
cur table: 2606
epoch: 1000
next table: 2110
cur table: 2122
epoch: 1000
next table: 2179
cur table: 2110
epoch: 1000
next table: 2768
cur table: 2622
epoch: 1000
next table: 2097
cur table: 2179
epoch: 1000
next table: 2121
cur table: 2097
epoch: 1000
next table: 2463
cur table: 2768
epoch: 1000
next table: 2175
cur table: 2121
epoch: 1000
next table: 2577
cur table: 2463
epoch: 1000
next table: 2144
cur table: 2175
epoch: 1000
next table: 2127
cur table: 2144
epoch: 1000
next table: 2574
cur table: 2577
epoch: 1000
next table: 2093
cur table: 2127
epoch: 1000
next table: 2133
cur table: 2093
epoch: 1000
next table: 2464
cur table: 2574
epoch: 1000
next table: 2132
cur table: 2133
epoch: 1000
next table: 2550
cur table: 2464
epoch: 1000
next table: 2147
cur table: 2132
epoch: 1000
next table: 2092
cur table: 2147
epoch: 1000
next table: 2935
cur table: 2550
epoch: 1000
next table: 2194
cur table: 2092
epoch: 1000
next table: 2095
cur table: 2194
epoch: 1000
next table: 2483
cur table: 2935
epoch: 1000
next table: 2109
cur table: 2095
epoch: 1000
next table: 2483
cur table: 2483
epoch: 1000
next table: 2184
cur table: 2109
epoch: 1000
next table: 2162
cur table: 2184
epoch: 1000
next table: 2629
cur table: 2483
epoch: 1000
next table: 2122
cur table: 2162
epoch: 1000
next table: 2088
cur table: 2122
epoch: 1000
next table: 2505
cur table: 2629
epoch: 1000
next table: 2123
cur table: 2088
epoch: 1000
next table: 2576
cur table: 2505
epoch: 1000
next table: 2137
cur table: 2123
epoch: 1000
next table: 2148
cur table: 2137
epoch: 1000
next table: 2625
cur table: 2576
epoch: 1000
next table: 2100
cur table: 2148
epoch: 1000
next table: 2165
cur table: 2100
epoch: 1000
next table: 2824
cur table: 2625
epoch: 1000
next table: 2099
cur table: 2165
epoch: 1000
next table: 2455
cur table: 2824
epoch: 1000
next table: 2117
cur table: 2099
epoch: 1000
next table: 2178
cur table: 2117
epoch: 1000
next table: 2549
cur table: 2455
epoch: 1000
next table: 2160
cur table: 2178
epoch: 1000
next table: 2138
cur table: 2160
epoch: 1000
next table: 2615
cur table: 2549
epoch: 1000
next table: 2089
cur table: 2138
epoch: 1000
next table: 2520
cur table: 2615
epoch: 1000
next table: 2114
cur table: 2089
epoch: 1000
next table: 2137
cur table: 2114
epoch: 1000
next table: 2568
cur table: 2520
epoch: 1000
next table: 2134
cur table: 2137
epoch: 1000
next table: 2097
cur table: 2134
epoch: 1000
next table: 2616
cur table: 2568
epoch: 1000
next table: 2145
cur table: 2097
epoch: 1000
next table: 2147
cur table: 2145
epoch: 1000
next table: 2825
cur table: 2616
epoch: 1000
next table: 2109
cur table: 2147
epoch: 1000
next table: 2474
cur table: 2825
epoch: 1000
next table: 2143
cur table: 2109
epoch: 1000
next table: 2177
cur table: 2143
epoch: 1000
next table: 2541
cur table: 2474
epoch: 1000
next table: 2157
cur table: 2177
epoch: 1000
next table: 2635
cur table: 2541
epoch: 1000
next table: 2072
cur table: 2157
epoch: 1000
next table: 2102
cur table: 2072
epoch: 1000
next table: 2514
cur table: 2635
epoch: 1000
next table: 2130
cur table: 2102
epoch: 1000
next table: 2132
cur table: 2130
epoch: 1000
next table: 2512
cur table: 2514
epoch: 1000
next table: 2112
cur table: 2132
epoch: 1000
next table: 2701
cur table: 2512
epoch: 1000
next table: 2092
cur table: 2112
epoch: 1000
next table: 2190
cur table: 2092
epoch: 1000
next table: 2767
cur table: 2701
epoch: 1000
next table: 2085
cur table: 2190
epoch: 1000
next table: 2135
cur table: 2085
epoch: 1000
next table: 2485
cur table: 2767
epoch: 1000
next table: 2190
cur table: 2135
epoch: 1000
next table: 2134
cur table: 2190
epoch: 1000
next table: 2632
cur table: 2485
epoch: 1000
next table: 2091
cur table: 2134
epoch: 1000
next table: 2569
cur table: 2632
epoch: 1000
next table: 2097
cur table: 2091
epoch: 1000
next table: 2147
cur table: 2097
epoch: 1000
next table: 2556
cur table: 2569
epoch: 1000
next table: 2122
cur table: 2147
epoch: 1000
next table: 2574
cur table: 2556
epoch: 1000
next table: 2124
cur table: 2122
epoch: 1000
next table: 2113
cur table: 2124
epoch: 1000
next table: 2903
cur table: 2574
epoch: 1000
next table: 2182
cur table: 2113
epoch: 1000
next table: 2094
cur table: 2182
epoch: 1000
next table: 2501
cur table: 2903
epoch: 1000
next table: 2130
cur table: 2094
epoch: 1000
next table: 2176
cur table: 2130
epoch: 1000
next table: 2543
cur table: 2501
epoch: 1000
next table: 2151
cur table: 2176
epoch: 1000
next table: 2627
cur table: 2543
epoch: 1000
next table: 2113
cur table: 2151
epoch: 1000
next table: 2085
cur table: 2113
epoch: 1000
next table: 2515
cur table: 2627
epoch: 1000
next table: 2123
cur table: 2085
epoch: 1000
next table: 2149
cur table: 2123
epoch: 1000
next table: 2599
cur table: 2515
epoch: 1000
next table: 2116
cur table: 2149
epoch: 1000
next table: 2622
cur table: 2599
epoch: 1000
next table: 2095
cur table: 2116
epoch: 1000
next table: 2179
cur table: 2095
epoch: 1000
next table: 2800
cur table: 2622
epoch: 1000
next table: 2092
cur table: 2179
epoch: 1000
next table: 2116
cur table: 2092
epoch: 1000
next table: 2493
cur table: 2800
epoch: 1000
next table: 2171
cur table: 2116
epoch: 1000
next table: 2152
cur table: 2171
epoch: 1000
next table: 2592
cur table: 2493
epoch: 1000
next table: 2118
cur table: 2152
epoch: 1000
next table: 2603
cur table: 2592
epoch: 1000
next table: 2086
cur table: 2118
epoch: 1000
next table: 2128
cur table: 2086
epoch: 1000
next table: 2521
cur table: 2603
epoch: 1000
next table: 2152
cur table: 2128
epoch: 1000
next table: 2580
cur table: 2521
epoch: 1000
next table: 2131
cur table: 2152
epoch: 1000
next table: 2095
cur table: 2131
epoch: 1000
next table: 2927
cur table: 2580
epoch: 1000
next table: 2151
cur table: 2095
epoch: 1000
next table: 2117
cur table: 2151
epoch: 1000
next table: 2465
cur table: 2927
epoch: 1000
next table: 2112
cur table: 2117
epoch: 1000
next table: 2175
cur table: 2112
epoch: 1000
next table: 2489
cur table: 2465
epoch: 1000
next table: 2154
cur table: 2175
epoch: 1000
next table: 2631
cur table: 2489
epoch: 1000
next table: 2107
cur table: 2154
epoch: 1000
next table: 2079
cur table: 2107
epoch: 1000
next table: 2531
cur table: 2631
epoch: 1000
next table: 2123
cur table: 2079
epoch: 1000
next table: 2149
cur table: 2123
epoch: 1000
next table: 2565
cur table: 2531
epoch: 1000
next table: 2142
cur table: 2149
epoch: 1000
next table: 2606
cur table: 2565
epoch: 1000
next table: 2103
cur table: 2142
epoch: 1000
next table: 2139
cur table: 2103
epoch: 1000
next table: 2837
cur table: 2606
epoch: 1000
next table: 2149
cur table: 2139
epoch: 1000
next table: 2104
cur table: 2149
epoch: 1000
next table: 2442
cur table: 2837
epoch: 1000
next table: 2157
cur table: 2104
epoch: 1000
next table: 2558
cur table: 2442
epoch: 1000
next table: 2175
cur table: 2157
epoch: 1000
next table: 2141
cur table: 2175
epoch: 1000
next table: 2682
cur table: 2558
epoch: 1000
next table: 2079
cur table: 2141
epoch: 1000
next table: 2351
cur table: 2682
epoch: 1000
next table: 2119
cur table: 2079
epoch: 1000
next table: 2151
cur table: 2119
epoch: 1000
next table: 2122
cur table: 2351
epoch: 1000
next table: 2145
cur table: 2151
epoch: 1000
next table: 2154
cur table: 2122
epoch: 1000
next table: 2120
cur table: 2145
epoch: 1000
next table: 2453
cur table: 2154
epoch: 1000
next table: 2113
cur table: 2120
epoch: 1000
next table: 2159
cur table: 2113
epoch: 1000
next table: 2745
cur table: 2453
epoch: 1000
next table: 2086
cur table: 2159
epoch: 1000
next table: 2133
cur table: 2086
epoch: 1000
next table: 2492
cur table: 2745
epoch: 1000
next table: 2165
cur table: 2133
epoch: 1000
next table: 2609
cur table: 2492
epoch: 1000
next table: 2154
cur table: 2165
epoch: 1000
next table: 2089
cur table: 2154
epoch: 1000
next table: 2577
cur table: 2609
epoch: 1000
next table: 2120
cur table: 2089
epoch: 1000
next table: 2302
cur table: 2577
epoch: 1000
next table: 2138
cur table: 2120
epoch: 1000
next table: 2121
cur table: 2138
epoch: 1000
next table: 2375
cur table: 2302
epoch: 1000
next table: 2118
cur table: 2121
epoch: 1000
next table: 2363
cur table: 2375
epoch: 1000
next table: 2137
cur table: 2118
epoch: 1000
next table: 2166
cur table: 2137
epoch: 1000
next table: 2288
cur table: 2363
epoch: 1000
next table: 2077
cur table: 2166
epoch: 1000
next table: 2165
cur table: 2288
epoch: 1000
next table: 2143
cur table: 2077
epoch: 1000
next table: 2139
cur table: 2165
epoch: 1000
next table: 2189
cur table: 2143
epoch: 1000
next table: 2201
cur table: 2139
epoch: 1000
next table: 2156
cur table: 2189
epoch: 1000
next table: 2231
cur table: 2201
epoch: 1000
next table: 2125
cur table: 2156
epoch: 1000
next table: 2109
cur table: 2125
epoch: 1000
next table: 2354
cur table: 2231
epoch: 1000
next table: 2139
cur table: 2109
epoch: 1000
next table: 2372
cur table: 2354
epoch: 1000
next table: 2134
cur table: 2139
epoch: 1000
next table: 2132
cur table: 2134
epoch: 1000
next table: 2366
cur table: 2372
epoch: 1000
next table: 2112
cur table: 2132
epoch: 1000
next table: 2653
cur table: 2366
epoch: 1000
next table: 2184
cur table: 2112
epoch: 1000
next table: 2081
cur table: 2184
epoch: 1000
next table: 2317
cur table: 2653
epoch: 1000
next table: 2147
cur table: 2081
epoch: 1000
next table: 2297
cur table: 2317
epoch: 1000
next table: 2164
cur table: 2147
epoch: 1000
next table: 2415
cur table: 2297
epoch: 1000
next table: 2153
cur table: 2164
epoch: 1000
next table: 2128
cur table: 2153
epoch: 1000
next table: 2423
cur table: 2415
epoch: 1000
next table: 2112
cur table: 2128
epoch: 1000
next table: 2397
cur table: 2423
epoch: 1000
next table: 2129
cur table: 2112
epoch: 1000
next table: 2138
cur table: 2129
epoch: 1000
next table: 2453
cur table: 2397
epoch: 1000
next table: 2143
cur table: 2138
epoch: 1000
next table: 2502
cur table: 2453
epoch: 1000
next table: 2113
cur table: 2143
epoch: 1000
next table: 2127
cur table: 2113
epoch: 1000
next table: 2484
cur table: 2502
epoch: 1000
next table: 2191
cur table: 2127
epoch: 1000
next table: 2356
cur table: 2484
epoch: 1000
next table: 2113
cur table: 2191
epoch: 1000
next table: 2169
cur table: 2113
epoch: 1000
next table: 2327
cur table: 2356
epoch: 1000
next table: 2156
cur table: 2169
epoch: 1000
next table: 2485
cur table: 2327
epoch: 1000
next table: 2156
cur table: 2156
epoch: 1000
next table: 2092
cur table: 2156
epoch: 1000
next table: 2438
cur table: 2485
epoch: 1000
next table: 2130
cur table: 2092
epoch: 1000
next table: 2454
cur table: 2438
epoch: 1000
next table: 2144
cur table: 2130
epoch: 1000
next table: 2142
cur table: 2144
epoch: 1000
next table: 2433
cur table: 2454
epoch: 1000
next table: 2120
cur table: 2142
epoch: 1000
next table: 2539
cur table: 2433
epoch: 1000
next table: 2121
cur table: 2120
epoch: 1000
next table: 2134
cur table: 2121
epoch: 1000
next table: 2597
cur table: 2539
epoch: 1000
next table: 2112
cur table: 2134
epoch: 1000
next table: 2341
cur table: 2597
epoch: 1000
next table: 2159
cur table: 2112
epoch: 1000
next table: 2177
cur table: 2159
epoch: 1000
next table: 2442
cur table: 2341
epoch: 1000
next table: 2171
cur table: 2177
epoch: 1000
next table: 2499
cur table: 2442
epoch: 1000
next table: 2087
cur table: 2171
epoch: 1000
next table: 2128
cur table: 2087
epoch: 1000
next table: 2387
cur table: 2499
epoch: 1000
next table: 2146
cur table: 2128
epoch: 1000
next table: 2507
cur table: 2387
epoch: 1000
next table: 2133
cur table: 2146
epoch: 1000
next table: 2134
cur table: 2133
epoch: 1000
next table: 2531
cur table: 2507
epoch: 1000
next table: 2100
cur table: 2134
epoch: 1000
next table: 2719
cur table: 2531
epoch: 1000
next table: 2155
cur table: 2100
epoch: 1000
next table: 2101
cur table: 2155
epoch: 1000
next table: 2353
cur table: 2719
epoch: 1000
next table: 2131
cur table: 2101
epoch: 1000
next table: 2475
cur table: 2353
epoch: 1000
next table: 2172
cur table: 2131
epoch: 1000
next table: 2160
cur table: 2172
epoch: 1000
next table: 2548
cur table: 2475
epoch: 1000
next table: 2091
cur table: 2160
epoch: 1000
next table: 2449
cur table: 2548
epoch: 1000
next table: 2121
cur table: 2091
epoch: 1000
next table: 2152
cur table: 2121
epoch: 1000
next table: 2479
cur table: 2449
epoch: 1000
next table: 2140
cur table: 2152
epoch: 1000
next table: 2143
cur table: 2140
epoch: 1000
next table: 2503
cur table: 2479
epoch: 1000
next table: 2122
cur table: 2143
epoch: 1000
next table: 2697
cur table: 2503
epoch: 1000
next table: 2136
cur table: 2122
epoch: 1000
next table: 2094
cur table: 2136
epoch: 1000
next table: 2405
cur table: 2697
epoch: 1000
next table: 2138
cur table: 2094
epoch: 1000
next table: 2419
cur table: 2405
epoch: 1000
next table: 2183
cur table: 2138
epoch: 1000
next table: 2147
cur table: 2183
epoch: 1000
next table: 2544
cur table: 2419
epoch: 1000
next table: 2138
cur table: 2147
epoch: 1000
next table: 2496
cur table: 2544
epoch: 1000
next table: 2101
cur table: 2138
epoch: 1000
next table: 2136
cur table: 2101
epoch: 1000
next table: 2415
cur table: 2496
epoch: 1000
next table: 2141
cur table: 2136
epoch: 1000
next table: 2487
cur table: 2415
epoch: 1000
next table: 2139
cur table: 2141
epoch: 1000
next table: 2100
cur table: 2139
epoch: 1000
next table: 2584
cur table: 2487
epoch: 1000
next table: 2145
cur table: 2100
epoch: 1000
next table: 2121
cur table: 2145
epoch: 1000
next table: 2652
cur table: 2584
epoch: 1000
next table: 2128
cur table: 2121
epoch: 1000
next table: 2409
cur table: 2652
epoch: 1000
next table: 2176
cur table: 2128
epoch: 1000
next table: 2168
cur table: 2176
epoch: 1000
next table: 2507
cur table: 2409
epoch: 1000
next table: 2140
cur table: 2168
epoch: 1000
next table: 2512
cur table: 2507
epoch: 1000
next table: 2096
cur table: 2140
epoch: 1000
next table: 2135
cur table: 2096
epoch: 1000
next table: 2424
cur table: 2512
epoch: 1000
next table: 2147
cur table: 2135
epoch: 1000
next table: 2517
cur table: 2424
epoch: 1000
next table: 2154
cur table: 2147
epoch: 1000
next table: 2101
cur table: 2154
epoch: 1000
next table: 2523
cur table: 2517
epoch: 1000
next table: 2138
cur table: 2101
epoch: 1000
next table: 2745
cur table: 2523
epoch: 1000
next table: 2126
cur table: 2138
epoch: 1000
next table: 2136
cur table: 2126
epoch: 1000
next table: 2379
cur table: 2745
epoch: 1000
next table: 2189
cur table: 2136
epoch: 1000
next table: 2539
cur table: 2379
epoch: 1000
next table: 2166
cur table: 2189
epoch: 1000
next table: 2140
cur table: 2166
epoch: 1000
next table: 2499
cur table: 2539
epoch: 1000
next table: 2098
cur table: 2140
epoch: 1000
next table: 2134
cur table: 2098
epoch: 1000
next table: 2465
cur table: 2499
epoch: 1000
next table: 2162
cur table: 2134
epoch: 1000
next table: 2470
cur table: 2465
epoch: 1000
next table: 2156
cur table: 2162
epoch: 1000
next table: 2107
cur table: 2156
epoch: 1000
next table: 2587
cur table: 2470
epoch: 1000
next table: 2140
cur table: 2107
epoch: 1000
next table: 2770
cur table: 2587
epoch: 1000
next table: 2103
cur table: 2140
epoch: 1000
next table: 2128
cur table: 2103
epoch: 1000
next table: 2417
cur table: 2770
epoch: 1000
next table: 2177
cur table: 2128
epoch: 1000
next table: 2182
cur table: 2177
epoch: 1000
next table: 2554
cur table: 2417
epoch: 1000
next table: 2144
cur table: 2182
epoch: 1000
next table: 2568
cur table: 2554
epoch: 1000
next table: 2103
cur table: 2144
epoch: 1000
next table: 2105
cur table: 2103
epoch: 1000
next table: 2463
cur table: 2568
epoch: 1000
next table: 2157
cur table: 2105
epoch: 1000
next table: 2487
cur table: 2463
epoch: 1000
next table: 2144
cur table: 2157
epoch: 1000
next table: 2115
cur table: 2144
epoch: 1000
next table: 2553
cur table: 2487
epoch: 1000
next table: 2115
cur table: 2115
epoch: 1000
next table: 2695
cur table: 2553
epoch: 1000
next table: 2139
cur table: 2115
epoch: 1000
next table: 2092
cur table: 2139
epoch: 1000
next table: 2392
cur table: 2695
epoch: 1000
next table: 2171
cur table: 2092
epoch: 1000
next table: 2498
cur table: 2392
epoch: 1000
next table: 2188
cur table: 2171
epoch: 1000
next table: 2150
cur table: 2188
epoch: 1000
next table: 2577
cur table: 2498
epoch: 1000
next table: 2095
cur table: 2150
epoch: 1000
next table: 2125
cur table: 2095
epoch: 1000
next table: 2504
cur table: 2577
epoch: 1000
next table: 2167
cur table: 2125
epoch: 1000
next table: 2503
cur table: 2504
epoch: 1000
next table: 2137
cur table: 2167
epoch: 1000
next table: 2131
cur table: 2137
epoch: 1000
next table: 2557
cur table: 2503
epoch: 1000
next table: 2100
cur table: 2131
epoch: 1000
next table: 2727
cur table: 2557
epoch: 1000
next table: 2154
cur table: 2100
epoch: 1000
next table: 2096
cur table: 2154
epoch: 1000
next table: 2372
cur table: 2727
epoch: 1000
next table: 2158
cur table: 2096
epoch: 1000
next table: 2548
cur table: 2372
epoch: 1000
next table: 2197
cur table: 2158
epoch: 1000
next table: 2144
cur table: 2197
epoch: 1000
next table: 2567
cur table: 2548
epoch: 1000
next table: 2102
cur table: 2144
epoch: 1000
next table: 2137
cur table: 2102
epoch: 1000
next table: 2471
cur table: 2567
epoch: 1000
next table: 2148
cur table: 2137
epoch: 1000
next table: 2562
cur table: 2471
epoch: 1000
next table: 2149
cur table: 2148
epoch: 1000
next table: 2143
cur table: 2149
epoch: 1000
next table: 2558
cur table: 2562
epoch: 1000
next table: 2106
cur table: 2143
epoch: 1000
next table: 2138
cur table: 2106
epoch: 1000
next table: 2819
cur table: 2558
epoch: 1000
next table: 2114
cur table: 2138
epoch: 1000
next table: 2419
cur table: 2819
epoch: 1000
next table: 2162
cur table: 2114
epoch: 1000
next table: 2176
cur table: 2162
epoch: 1000
next table: 2516
cur table: 2419
epoch: 1000
next table: 2180
cur table: 2176
epoch: 1000
next table: 2596
cur table: 2516
epoch: 1000
next table: 2101
cur table: 2180
epoch: 1000
next table: 2108
cur table: 2101
epoch: 1000
next table: 2464
cur table: 2596
epoch: 1000
next table: 2151
cur table: 2108
epoch: 1000
next table: 2519
cur table: 2464
epoch: 1000
next table: 2150
cur table: 2151
epoch: 1000
next table: 2145
cur table: 2150
epoch: 1000
next table: 2569
cur table: 2519
epoch: 1000
next table: 2123
cur table: 2145
epoch: 1000
next table: 2160
cur table: 2123
epoch: 1000
next table: 2691
cur table: 2569
epoch: 1000
next table: 2104
cur table: 2160
epoch: 1000
next table: 2396
cur table: 2691
epoch: 1000
next table: 2138
cur table: 2104
epoch: 1000
next table: 2174
cur table: 2138
epoch: 1000
next table: 2536
cur table: 2396
epoch: 1000
next table: 2164
cur table: 2174
epoch: 1000
next table: 2595
cur table: 2536
epoch: 1000
next table: 2123
cur table: 2164
epoch: 1000
next table: 2100
cur table: 2123
epoch: 1000
next table: 2454
cur table: 2595
epoch: 1000
next table: 2150
cur table: 2100
epoch: 1000
next table: 2457
cur table: 2454
epoch: 1000
next table: 2137
cur table: 2150
epoch: 1000
next table: 2133
cur table: 2137
epoch: 1000
next table: 2498
cur table: 2457
epoch: 1000
next table: 2123
cur table: 2133
epoch: 1000
next table: 2203
cur table: 2123
epoch: 1000
next table: 2872
cur table: 2498
epoch: 1000
next table: 2100
cur table: 2203
epoch: 1000
next table: 2340
cur table: 2872
epoch: 1000
next table: 2146
cur table: 2100
epoch: 1000
next table: 2169
cur table: 2146
epoch: 1000
next table: 2441
cur table: 2340
epoch: 1000
next table: 2159
cur table: 2169
epoch: 1000
next table: 2575
cur table: 2441
epoch: 1000
next table: 2143
cur table: 2159
epoch: 1000
next table: 2094
cur table: 2143
epoch: 1000
next table: 2474
cur table: 2575
epoch: 1000
next table: 2143
cur table: 2094
epoch: 1000
next table: 2565
cur table: 2474
epoch: 1000
next table: 2142
cur table: 2143
epoch: 1000
next table: 2128
cur table: 2142
epoch: 1000
next table: 2508
cur table: 2565
epoch: 1000
next table: 2104
cur table: 2128
epoch: 1000
next table: 2146
cur table: 2104
epoch: 1000
next table: 2832
cur table: 2508
epoch: 1000
next table: 2123
cur table: 2146
epoch: 1000
next table: 2396
cur table: 2832
epoch: 1000
next table: 2148
cur table: 2123
epoch: 1000
next table: 2167
cur table: 2148
epoch: 1000
next table: 2483
cur table: 2396
epoch: 1000
next table: 2150
cur table: 2167
epoch: 1000
next table: 2636
cur table: 2483
epoch: 1000
next table: 2161
cur table: 2150
epoch: 1000
next table: 2108
cur table: 2161
epoch: 1000
next table: 2473
cur table: 2636
epoch: 1000
next table: 2135
cur table: 2108
epoch: 1000
next table: 2127
cur table: 2135
epoch: 1000
next table: 2537
cur table: 2473
epoch: 1000
next table: 2149
cur table: 2127
epoch: 1000
next table: 2569
cur table: 2537
epoch: 1000
next table: 2117
cur table: 2149
epoch: 1000
next table: 2177
cur table: 2117
epoch: 1000
next table: 2821
cur table: 2569
epoch: 1000
next table: 2123
cur table: 2177
epoch: 1000
next table: 2366
cur table: 2821
epoch: 1000
next table: 2119
cur table: 2123
epoch: 1000
next table: 2203
cur table: 2119
epoch: 1000
next table: 2438
cur table: 2366
epoch: 1000
next table: 2148
cur table: 2203
epoch: 1000
next table: 2152
cur table: 2148
epoch: 1000
next table: 2652
cur table: 2438
epoch: 1000
next table: 2102
cur table: 2152
epoch: 1000
next table: 2485
cur table: 2652
epoch: 1000
next table: 2146
cur table: 2102
epoch: 1000
next table: 2138
cur table: 2146
epoch: 1000
next table: 2547
cur table: 2485
epoch: 1000
next table: 2135
cur table: 2138
epoch: 1000
next table: 2527
cur table: 2547
epoch: 1000
next table: 2112
cur table: 2135
epoch: 1000
next table: 2168
cur table: 2112
epoch: 1000
next table: 2792
cur table: 2527
epoch: 1000
next table: 2133
cur table: 2168
epoch: 1000
next table: 2127
cur table: 2133
epoch: 1000
next table: 2381
cur table: 2792
epoch: 1000
next table: 2174
cur table: 2127
epoch: 1000
next table: 2484
cur table: 2381
epoch: 1000
next table: 2166
cur table: 2174
epoch: 1000
next table: 2169
cur table: 2166
epoch: 1000
next table: 2550
cur table: 2484
epoch: 1000
next table: 2098
cur table: 2169
epoch: 1000
next table: 2464
cur table: 2550
epoch: 1000
next table: 2137
cur table: 2098
epoch: 1000
next table: 2118
cur table: 2137
epoch: 1000
next table: 2518
cur table: 2464
epoch: 1000
next table: 2156
cur table: 2118
epoch: 1000
next table: 2520
cur table: 2518
epoch: 1000
next table: 2090
cur table: 2156
epoch: 1000
next table: 2137
cur table: 2090
epoch: 1000
next table: 2829
cur table: 2520
epoch: 1000
next table: 2117
cur table: 2137
epoch: 1000
next table: 2128
cur table: 2117
epoch: 1000
next table: 2405
cur table: 2829
epoch: 1000
next table: 2183
cur table: 2128
epoch: 1000
next table: 2619
cur table: 2405
epoch: 1000
next table: 2169
cur table: 2183
epoch: 1000
next table: 2144
cur table: 2169
epoch: 1000
next table: 2696
cur table: 2619
epoch: 1000
next table: 2092
cur table: 2144
epoch: 1000
next table: 2120
cur table: 2092
epoch: 1000
next table: 2529
cur table: 2696
epoch: 1000
next table: 2139
cur table: 2120
epoch: 1000
next table: 2636
cur table: 2529
epoch: 1000
next table: 2126
cur table: 2139
epoch: 1000
next table: 2109
cur table: 2126
epoch: 1000
next table: 2689
cur table: 2636
epoch: 1000
next table: 2121
cur table: 2109
epoch: 1000
next table: 2148
cur table: 2121
epoch: 1000
next table: 2844
cur table: 2689
epoch: 1000
next table: 2126
cur table: 2148
epoch: 1000
next table: 2146
cur table: 2126
epoch: 1000
next table: 2560
cur table: 2844
epoch: 1000
next table: 2174
cur table: 2146
epoch: 1000
next table: 2664
cur table: 2560
epoch: 1000
next table: 2156
cur table: 2174
epoch: 1000
next table: 2113
cur table: 2156
epoch: 1000
next table: 2614
cur table: 2664
epoch: 1000
next table: 2136
cur table: 2113
epoch: 1000
next table: 2143
cur table: 2136
epoch: 1000
next table: 2691
cur table: 2614
epoch: 1000
next table: 2116
cur table: 2143
epoch: 1000
next table: 2109
cur table: 2116
epoch: 1000
next table: 2648
cur table: 2691
epoch: 1000
next table: 2104
cur table: 2109
epoch: 1000
next table: 2153
cur table: 2104
epoch: 1000
next table: 2906
cur table: 2648
epoch: 1000
next table: 2105
cur table: 2153
epoch: 1000
next table: 2540
cur table: 2906
epoch: 1000
next table: 2137
cur table: 2105
epoch: 1000
next table: 2179
cur table: 2137
epoch: 1000
next table: 2582
cur table: 2540
epoch: 1000
next table: 2157
cur table: 2179
epoch: 1000
next table: 2091
cur table: 2157
epoch: 1000
next table: 2613
cur table: 2582
epoch: 1000
next table: 2138
cur table: 2091
epoch: 1000
next table: 2411
cur table: 2613
epoch: 1000
next table: 2130
cur table: 2138
epoch: 1000
next table: 2435
cur table: 2411
epoch: 1000
next table: 2117
cur table: 2130
epoch: 1000
next table: 2121
cur table: 2117
epoch: 1000
next table: 2492
cur table: 2435
epoch: 1000
next table: 2118
cur table: 2121
epoch: 1000
next table: 2159
cur table: 2118
epoch: 1000
next table: 2681
cur table: 2492
epoch: 1000
next table: 2096
cur table: 2159
epoch: 1000
next table: 2303
cur table: 2681
epoch: 1000
next table: 2137
cur table: 2096
epoch: 1000
next table: 2359
cur table: 2303
epoch: 1000
next table: 2169
cur table: 2137
epoch: 1000
next table: 2150
cur table: 2169
epoch: 1000
next table: 2464
cur table: 2359
epoch: 1000
next table: 2124
cur table: 2150
epoch: 1000
next table: 2427
cur table: 2464
epoch: 1000
next table: 2127
cur table: 2124
epoch: 1000
next table: 2138
cur table: 2127
epoch: 1000
next table: 2464
cur table: 2427
epoch: 1000
next table: 2127
cur table: 2138
epoch: 1000
next table: 2454
cur table: 2464
epoch: 1000
next table: 2135
cur table: 2127
epoch: 1000
next table: 2120
cur table: 2135
epoch: 1000
next table: 2741
cur table: 2454
epoch: 1000
next table: 2161
cur table: 2120
epoch: 1000
next table: 2093
cur table: 2161
epoch: 1000
next table: 2454
cur table: 2741
epoch: 1000
next table: 2143
cur table: 2093
epoch: 1000
next table: 2281
cur table: 2454
epoch: 1000
next table: 2179
cur table: 2143
epoch: 1000
next table: 2139
cur table: 2179
epoch: 1000
next table: 2468
cur table: 2281
epoch: 1000
next table: 2123
cur table: 2139
epoch: 1000
next table: 2462
cur table: 2468
epoch: 1000
next table: 2119
cur table: 2123
epoch: 1000
next table: 2438
cur table: 2462
epoch: 1000
next table: 2145
cur table: 2119
epoch: 1000
next table: 2140
cur table: 2145
epoch: 1000
next table: 2427
cur table: 2438
epoch: 1000
next table: 2148
cur table: 2140
epoch: 1000
next table: 2541
cur table: 2427
epoch: 1000
next table: 2123
cur table: 2148
epoch: 1000
next table: 2148
cur table: 2123
epoch: 1000
next table: 2745
cur table: 2541
epoch: 1000
next table: 2101
cur table: 2148
epoch: 1000
next table: 2148
cur table: 2101
epoch: 1000
next table: 2383
cur table: 2745
epoch: 1000
next table: 2183
cur table: 2148
epoch: 1000
next table: 2471
cur table: 2383
epoch: 1000
next table: 2143
cur table: 2183
epoch: 1000
next table: 2126
cur table: 2143
epoch: 1000
next table: 2522
cur table: 2471
epoch: 1000
next table: 2117
cur table: 2126
epoch: 1000
next table: 2419
cur table: 2522
epoch: 1000
next table: 2138
cur table: 2117
epoch: 1000
next table: 2119
cur table: 2138
epoch: 1000
next table: 2470
cur table: 2419
epoch: 1000
next table: 2151
cur table: 2119
epoch: 1000
next table: 2507
cur table: 2470
epoch: 1000
next table: 2087
cur table: 2151
epoch: 1000
next table: 2172
cur table: 2087
epoch: 1000
next table: 2708
cur table: 2507
epoch: 1000
next table: 2101
cur table: 2172
epoch: 1000
next table: 2404
cur table: 2708
epoch: 1000
next table: 2118
cur table: 2101
epoch: 1000
next table: 2190
cur table: 2118
epoch: 1000
next table: 2491
cur table: 2404
epoch: 1000
next table: 2157
cur table: 2190
epoch: 1000
next table: 2123
cur table: 2157
epoch: 1000
next table: 2552
cur table: 2491
epoch: 1000
next table: 2118
cur table: 2123
epoch: 1000
next table: 2404
cur table: 2552
epoch: 1000
next table: 2147
cur table: 2118
epoch: 1000
next table: 2130
cur table: 2147
epoch: 1000
next table: 2498
cur table: 2404
epoch: 1000
next table: 2130
cur table: 2130
epoch: 1000
next table: 2523
cur table: 2498
epoch: 1000
next table: 2104
cur table: 2130
epoch: 1000
next table: 2149
cur table: 2104
epoch: 1000
next table: 2625
cur table: 2523
epoch: 1000
next table: 2118
cur table: 2149
epoch: 1000
next table: 2414
cur table: 2625
epoch: 1000
next table: 2131
cur table: 2118
epoch: 1000
next table: 2172
cur table: 2131
epoch: 1000
next table: 2439
cur table: 2414
epoch: 1000
next table: 2147
cur table: 2172
epoch: 1000
next table: 2582
cur table: 2439
epoch: 1000
next table: 2158
cur table: 2147
epoch: 1000
next table: 2106
cur table: 2158
epoch: 1000
next table: 2476
cur table: 2582
epoch: 1000
next table: 2112
cur table: 2106
epoch: 1000
next table: 2518
cur table: 2476
epoch: 1000
next table: 2129
cur table: 2112
epoch: 1000
next table: 2162
cur table: 2129
epoch: 1000
next table: 2495
cur table: 2518
epoch: 1000
next table: 2107
cur table: 2162
epoch: 1000
next table: 2143
cur table: 2107
epoch: 1000
next table: 2740
cur table: 2495
epoch: 1000
next table: 2146
cur table: 2143
epoch: 1000
next table: 2438
cur table: 2740
epoch: 1000
next table: 2121
cur table: 2146
epoch: 1000
next table: 2161
cur table: 2121
epoch: 1000
next table: 2474
cur table: 2438
epoch: 1000
next table: 2147
cur table: 2161
epoch: 1000
next table: 2598
cur table: 2474
epoch: 1000
next table: 2160
cur table: 2147
epoch: 1000
next table: 2100
cur table: 2160
epoch: 1000
next table: 2520
cur table: 2598
epoch: 1000
next table: 2109
cur table: 2100
epoch: 1000
next table: 2152
cur table: 2109
epoch: 1000
next table: 2604
cur table: 2520
epoch: 1000
next table: 2147
cur table: 2152
epoch: 1000
next table: 2716
cur table: 2604
epoch: 1000
next table: 2119
cur table: 2147
epoch: 1000
next table: 2122
cur table: 2119
epoch: 1000
next table: 2184
cur table: 2122
epoch: 1000
next table: 2992
cur table: 2716
epoch: 1000
next table: 2109
cur table: 2184
epoch: 1000
next table: 2534
cur table: 2992
epoch: 1000
next table: 2159
cur table: 2109
epoch: 1000
next table: 2134
cur table: 2159
epoch: 1000
next table: 2621
cur table: 2534
epoch: 1000
next table: 2149
cur table: 2134
epoch: 1000
next table: 2112
cur table: 2149
epoch: 1000
next table: 2657
cur table: 2621
epoch: 1000
next table: 2116
cur table: 2112
epoch: 1000
next table: 2546
cur table: 2657
epoch: 1000
next table: 2145
cur table: 2116
epoch: 1000
next table: 2121
cur table: 2145
epoch: 1000
next table: 2647
cur table: 2546
epoch: 1000
next table: 2137
cur table: 2121
epoch: 1000
next table: 2123
cur table: 2137
epoch: 1000
next table: 2776
cur table: 2647
epoch: 1000
next table: 2149
cur table: 2123
epoch: 1000
next table: 2111
cur table: 2149
epoch: 1000
next table: 2547
cur table: 2776
epoch: 1000
next table: 2132
cur table: 2111
epoch: 1000
next table: 2534
cur table: 2547
epoch: 1000
next table: 2151
cur table: 2132
epoch: 1000
next table: 2153
cur table: 2151
epoch: 1000
next table: 2627
cur table: 2534
epoch: 1000
next table: 2104
cur table: 2153
epoch: 1000
next table: 2117
cur table: 2104
epoch: 1000
next table: 2615
cur table: 2627
epoch: 1000
next table: 2134
cur table: 2117
epoch: 1000
next table: 2616
cur table: 2615
epoch: 1000
next table: 2143
cur table: 2134
epoch: 1000
next table: 2131
cur table: 2143
epoch: 1000
next table: 2642
cur table: 2616
epoch: 1000
next table: 2111
cur table: 2131
epoch: 1000
next table: 2164
cur table: 2111
epoch: 1000
next table: 2819
cur table: 2642
epoch: 1000
next table: 2088
cur table: 2164
epoch: 1000
next table: 2127
cur table: 2088
epoch: 1000
next table: 2508
cur table: 2819
epoch: 1000
next table: 2153
cur table: 2127
epoch: 1000
next table: 2614
cur table: 2508
epoch: 1000
next table: 2146
cur table: 2153
epoch: 1000
next table: 2126
cur table: 2146
epoch: 1000
next table: 2632
cur table: 2614
epoch: 1000
next table: 2110
cur table: 2126
epoch: 1000
next table: 2126
cur table: 2110
epoch: 1000
next table: 2556
cur table: 2632
epoch: 1000
next table: 2126
cur table: 2126
epoch: 1000
next table: 2619
cur table: 2556
epoch: 1000
next table: 2134
cur table: 2126
epoch: 1000
next table: 2117
cur table: 2134
epoch: 1000
next table: 2982
cur table: 2619
epoch: 1000
next table: 2137
cur table: 2117
epoch: 1000
next table: 2102
cur table: 2137
epoch: 1000
next table: 2519
cur table: 2982
epoch: 1000
next table: 2101
cur table: 2102
epoch: 1000
next table: 2175
cur table: 2101
epoch: 1000
next table: 2526
cur table: 2519
epoch: 1000
next table: 2131
cur table: 2175
epoch: 1000
next table: 2653
cur table: 2526
epoch: 1000
next table: 2138
cur table: 2131
epoch: 1000
next table: 2114
cur table: 2138
epoch: 1000
next table: 2553
cur table: 2653
epoch: 1000
next table: 2134
cur table: 2114
epoch: 1000
next table: 2123
cur table: 2134
epoch: 1000
next table: 2607
cur table: 2553
epoch: 1000
next table: 2137
cur table: 2123
epoch: 1000
next table: 2627
cur table: 2607
epoch: 1000
next table: 2106
cur table: 2137
epoch: 1000
next table: 2133
cur table: 2106
epoch: 1000
next table: 2836
cur table: 2627
epoch: 1000
next table: 2117
cur table: 2133
epoch: 1000
next table: 2124
cur table: 2117
epoch: 1000
next table: 2444
cur table: 2836
epoch: 1000
next table: 2161
cur table: 2124
epoch: 1000
next table: 2130
cur table: 2161
epoch: 1000
next table: 2543
cur table: 2444
epoch: 1000
next table: 2162
cur table: 2130
epoch: 1000
next table: 2637
cur table: 2543
epoch: 1000
next table: 2109
cur table: 2162
epoch: 1000
next table: 2113
cur table: 2109
epoch: 1000
next table: 2548
cur table: 2637
epoch: 1000
next table: 2146
cur table: 2113
epoch: 1000
next table: 2167
cur table: 2146
epoch: 1000
next table: 2596
cur table: 2548
epoch: 1000
next table: 2091
cur table: 2167
epoch: 1000
next table: 2137
cur table: 2091
epoch: 1000
next table: 2920
cur table: 2596
epoch: 1000
next table: 2115
cur table: 2137
epoch: 1000
next table: 2501
cur table: 2920
epoch: 1000
next table: 2101
cur table: 2115
epoch: 1000
next table: 2172
cur table: 2101
epoch: 1000
next table: 2480
cur table: 2501
epoch: 1000
next table: 2143
cur table: 2172
epoch: 1000
next table: 2648
cur table: 2480
epoch: 1000
next table: 2168
cur table: 2143
epoch: 1000
next table: 2098
cur table: 2168
epoch: 1000
next table: 2501
cur table: 2648
epoch: 1000
next table: 2120
cur table: 2098
epoch: 1000
next table: 2146
cur table: 2120
epoch: 1000
next table: 2589
cur table: 2501
epoch: 1000
next table: 2157
cur table: 2146
epoch: 1000
next table: 2628
cur table: 2589
epoch: 1000
next table: 2103
cur table: 2157
epoch: 1000
next table: 2123
cur table: 2103
epoch: 1000
next table: 2803
cur table: 2628
epoch: 1000
next table: 2137
cur table: 2123
epoch: 1000
next table: 2102
cur table: 2137
epoch: 1000
next table: 2487
cur table: 2803
epoch: 1000
next table: 2161
cur table: 2102
epoch: 1000
next table: 2152
cur table: 2161
epoch: 1000
next table: 2535
cur table: 2487
epoch: 1000
next table: 2152
cur table: 2152
epoch: 1000
next table: 2650
cur table: 2535
epoch: 1000
next table: 2108
cur table: 2152
epoch: 1000
next table: 2139
cur table: 2108
epoch: 1000
next table: 2480
cur table: 2650
epoch: 1000
next table: 2146
cur table: 2139
epoch: 1000
next table: 2585
cur table: 2480
epoch: 1000
next table: 2129
cur table: 2146
epoch: 1000
next table: 2127
cur table: 2129
epoch: 1000
next table: 2621
cur table: 2585
epoch: 1000
next table: 2097
cur table: 2127
epoch: 1000
next table: 2142
cur table: 2097
epoch: 1000
next table: 2819
cur table: 2621
epoch: 1000
next table: 2112
cur table: 2142
epoch: 1000
next table: 2137
cur table: 2112
epoch: 1000
next table: 2482
cur table: 2819
epoch: 1000
next table: 2160
cur table: 2137
epoch: 1000
next table: 2606
cur table: 2482
epoch: 1000
next table: 2145
cur table: 2160
epoch: 1000
next table: 2101
cur table: 2145
epoch: 1000
next table: 2512
cur table: 2606
epoch: 1000
next table: 2140
cur table: 2101
epoch: 1000
next table: 2558
cur table: 2512
epoch: 1000
next table: 2132
cur table: 2140
epoch: 1000
next table: 2145
cur table: 2132
epoch: 1000
next table: 2587
cur table: 2558
epoch: 1000
next table: 2121
cur table: 2145
epoch: 1000
next table: 2102
cur table: 2121
epoch: 1000
next table: 2872
cur table: 2587
epoch: 1000
next table: 2144
cur table: 2102
epoch: 1000
next table: 2102
cur table: 2144
epoch: 1000
next table: 2511
cur table: 2872
epoch: 1000
next table: 2119
cur table: 2102
epoch: 1000
next table: 2514
cur table: 2511
epoch: 1000
next table: 2161
cur table: 2119
epoch: 1000
next table: 2136
cur table: 2161
epoch: 1000
next table: 2641
cur table: 2514
epoch: 1000
next table: 2129
cur table: 2136
epoch: 1000
next table: 2146
cur table: 2129
epoch: 1000
next table: 2451
cur table: 2641
epoch: 1000
next table: 2139
cur table: 2146
epoch: 1000
next table: 2189
cur table: 2451
epoch: 1000
next table: 2142
cur table: 2139
epoch: 1000
next table: 2181
cur table: 2189
epoch: 1000
next table: 2126
cur table: 2142
epoch: 1000
next table: 2315
cur table: 2181
epoch: 1000
next table: 2116
cur table: 2126
epoch: 1000
next table: 2219
cur table: 2116
epoch: 1000
next table: 2295
cur table: 2315
epoch: 1000
next table: 2126
cur table: 2219
epoch: 1000
next table: 2133
cur table: 2295
epoch: 1000
next table: 2152
cur table: 2126
epoch: 1000
next table: 2098
cur table: 2133
epoch: 1000
next table: 2248
cur table: 2152
epoch: 1000
next table: 2161
cur table: 2098
epoch: 1000
next table: 2198
cur table: 2248
epoch: 1000
next table: 2326
cur table: 2161
epoch: 1000
next table: 2101
cur table: 2198
epoch: 1000
next table: 2166
cur table: 2101
epoch: 1000
next table: 2346
cur table: 2326
epoch: 1000
next table: 2132
cur table: 2166
epoch: 1000
next table: 2426
cur table: 2346
epoch: 1000
next table: 2117
cur table: 2132
epoch: 1000
next table: 2130
cur table: 2117
epoch: 1000
next table: 2365
cur table: 2426
epoch: 1000
next table: 2105
cur table: 2130
epoch: 1000
next table: 2629
cur table: 2365
epoch: 1000
next table: 2199
cur table: 2105
epoch: 1000
next table: 2089
cur table: 2199
epoch: 1000
next table: 2309
cur table: 2629
epoch: 1000
next table: 2157
cur table: 2089
epoch: 1000
next table: 2276
cur table: 2309
epoch: 1000
next table: 2194
cur table: 2157
epoch: 1000
next table: 2174
cur table: 2194
epoch: 1000
next table: 2443
cur table: 2276
epoch: 1000
next table: 2103
cur table: 2174
epoch: 1000
next table: 2382
cur table: 2443
epoch: 1000
next table: 2184
cur table: 2103
epoch: 1000
next table: 2427
cur table: 2382
epoch: 1000
next table: 2119
cur table: 2184
epoch: 1000
next table: 2125
cur table: 2119
epoch: 1000
next table: 2429
cur table: 2427
epoch: 1000
next table: 2131
cur table: 2125
epoch: 1000
next table: 2493
cur table: 2429
epoch: 1000
next table: 2105
cur table: 2131
epoch: 1000
next table: 2188
cur table: 2105
epoch: 1000
next table: 2463
cur table: 2493
epoch: 1000
next table: 2084
cur table: 2188
epoch: 1000
next table: 2329
cur table: 2463
epoch: 1000
next table: 2125
cur table: 2084
epoch: 1000
next table: 2181
cur table: 2125
epoch: 1000
next table: 2335
cur table: 2329
epoch: 1000
next table: 2178
cur table: 2181
epoch: 1000
next table: 2460
cur table: 2335
epoch: 1000
next table: 2118
cur table: 2178
[...]
epoch: 1000
next table: 2333
cur table: 2315
epoch: 1000
next table: 2394
cur table: 2333
epoch: 1000
next table: 2193
cur table: 2094
epoch: 1000
next table: 2383
cur table: 2394
epoch: 1000
next table: 2179
cur table: 2193
epoch: 1000
next table: 2385
cur table: 2383
epoch: 1000
next table: 2063
cur table: 2179
epoch: 1000
next table: 2378
cur table: 2385
epoch: 1000
next table: 2126
cur table: 2063
epoch: 1000
next table: 2350
cur table: 2378
epoch: 1000
next table: 2389
cur table: 2350
epoch: 1000
next table: 2110
cur table: 2126
epoch: 1000
next table: 2601
cur table: 2389
epoch: 1000
next table: 2283
cur table: 2110
epoch: 1000
next table: 2327
cur table: 2601
epoch: 1000
next table: 2144
cur table: 2283
epoch: 1000
next table: 2312
cur table: 2327
epoch: 1000
next table: 2402
cur table: 2312
epoch: 1000
next table: 2139
cur table: 2144
epoch: 1000
next table: 2380
cur table: 2402
epoch: 1000
next table: 2172
cur table: 2139
epoch: 1000
next table: 2397
cur table: 2380
epoch: 1000
next table: 2050
cur table: 2172
epoch: 1000
next table: 2376
cur table: 2397
epoch: 1000
next table: 2355
cur table: 2376
epoch: 1000
next table: 2166
cur table: 2050
epoch: 1000
next table: 2420
cur table: 2355
epoch: 1000
next table: 2139
cur table: 2166
epoch: 1000
next table: 2543
cur table: 2420
epoch: 1000
next table: 2248
cur table: 2139
epoch: 1000
next table: 2354
cur table: 2543
epoch: 1000
next table: 2320
cur table: 2354
epoch: 1000
next table: 2122
cur table: 2248
epoch: 1000
next table: 2370
cur table: 2320
epoch: 1000
next table: 2159
cur table: 2122
epoch: 1000
next table: 2399
cur table: 2370
epoch: 1000
next table: 2111
cur table: 2159
epoch: 1000
next table: 2397
cur table: 2399
epoch: 1000
next table: 2081
cur table: 2111
epoch: 1000
next table: 2349
cur table: 2397
epoch: 1000
next table: 2353
cur table: 2349
epoch: 1000
next table: 2158
cur table: 2081
epoch: 1000
next table: 2414
cur table: 2353
epoch: 1000
next table: 2135
cur table: 2158
epoch: 1000
next table: 2583
cur table: 2414
epoch: 1000
next table: 2321
cur table: 2583
epoch: 1000
next table: 2354
cur table: 2135
epoch: 1000
next table: 2337
cur table: 2321
epoch: 1000
next table: 2128
cur table: 2354
epoch: 1000
next table: 2378
cur table: 2337
Heartbeat CPU 0 instructions: 100000001 cycles: 302875531 heartbeat IPC: 0.16224 cumulative IPC: 0.175973 (Simulation time: 0 hr 28 min 28 sec) 
Finished CPU 0 instructions: 50000000 cycles: 284134584 cumulative IPC: 0.175973 (Simulation time: 0 hr 28 min 28 sec) 

ChampSim completed all CPUs

Region of Interest Statistics

CPU 0 cumulative IPC: 0.175973 instructions: 50000000 cycles: 284134584
ITLB TOTAL     ACCESS:    8070295  HIT:    8070295  MISS:          0  HIT %:        100  MISS %:          0   MPKI: 0
ITLB LOAD TRANSLATION ACCESS:    8070295  HIT:    8070295  MISS:          0  HIT %:        100  MISS %:          0   MPKI: 0
ITLB PREFETCH  REQUESTED:          0  ISSUED:          0  USEFUL:          0  USELESS:          0
ITLB USEFUL LOAD PREFETCHES:          0 PREFETCH ISSUED TO LOWER LEVEL:          0  ACCURACY: -nan
ITLB TIMELY PREFETCHES:          0 LATE PREFETCHES: 0 DROPPED PREFETCHES: 0
ITLB PREFETCHES SAME FILL-ORIGIN LEVEL: 0 DIFFERENT FILL-ORIGIN LEVEL: 0
ITLB AVERAGE MISS LATENCY: -nan cycles
ITLB RQ	ACCESS:    8188778	FORWARD:          0	MERGED:     118483	TO_CACHE:    8070295

Revised Interactions: positive negative neutral
ITLB_interactions 0 0 0 -nan -nan -nan
DTLB TOTAL     ACCESS:   10636127  HIT:    6383721  MISS:    4252406  HIT %:    60.0192  MISS %:    39.9808   MPKI: 85.0481
DTLB LOAD TRANSLATION ACCESS:   10636127  HIT:    6383721  MISS:    4252406  HIT %:    60.0192  MISS %:    39.9808   MPKI: 85.0481
DTLB PREFETCH  REQUESTED:          0  ISSUED:          0  USEFUL:          0  USELESS:          0
DTLB USEFUL LOAD PREFETCHES:          0 PREFETCH ISSUED TO LOWER LEVEL:          0  ACCURACY: -nan
DTLB TIMELY PREFETCHES:          0 LATE PREFETCHES: 0 DROPPED PREFETCHES: 0
DTLB PREFETCHES SAME FILL-ORIGIN LEVEL: 0 DIFFERENT FILL-ORIGIN LEVEL: 0
DTLB AVERAGE MISS LATENCY: 10.9183 cycles
DTLB RQ	ACCESS:   11824267	FORWARD:          0	MERGED:    1123561	TO_CACHE:   10700706

Revised Interactions: positive negative neutral
DTLB_interactions 0 0 0 -nan -nan -nan
STLB TOTAL     ACCESS:    4252405  HIT:    4195353  MISS:      57052  HIT %:    98.6584  MISS %:    1.34164   MPKI: 1.14104
STLB LOAD TRANSLATION ACCESS:    4252405  HIT:    4195353  MISS:      57052  HIT %:    98.6584  MISS %:    1.34164   MPKI: 1.14104
STLB PREFETCH  REQUESTED:          0  ISSUED:          0  USEFUL:          0  USELESS:          0
STLB USEFUL LOAD PREFETCHES:          0 PREFETCH ISSUED TO LOWER LEVEL:          0  ACCURACY: -nan
STLB TIMELY PREFETCHES:          0 LATE PREFETCHES: 0 DROPPED PREFETCHES: 0
STLB PREFETCHES SAME FILL-ORIGIN LEVEL: 0 DIFFERENT FILL-ORIGIN LEVEL: 0
STLB AVERAGE MISS LATENCY: 130.159 cycles
STLB RQ	ACCESS:    4252405	FORWARD:          0	MERGED:          0	TO_CACHE:    4252405

Revised Interactions: positive negative neutral
STLB_interactions 0 0 0 -nan -nan -nan
STLB Hit, L1D data hit: 0
STLB Hit, L2C data hit: 0
STLB Hit, LLC data hit: 0
STLB Hit, LLC data miss: 0
STLB STLB hints to L2: 0
L1D TOTAL     ACCESS:   11460375  HIT:    4027168  MISS:    7433207  HIT %:    35.1399  MISS %:    64.8601   MPKI: 148.664
L1D LOAD      ACCESS:   10415682  HIT:    3000159  MISS:    7415523  HIT %:    28.8042  MISS %:    71.1958   MPKI: 148.31
L1D RFO       ACCESS:    1044693  HIT:    1027009  MISS:      17684  HIT %:    98.3073  MISS %:    1.69275   MPKI: 0.35368
L1D PREFETCH  REQUESTED:          0  ISSUED:          0  USEFUL:          0  USELESS:          0
L1D USEFUL LOAD PREFETCHES:          0 PREFETCH ISSUED TO LOWER LEVEL:          0  ACCURACY: -nan
L1D TIMELY PREFETCHES:          0 LATE PREFETCHES: 0 DROPPED PREFETCHES: 0
L1D PREFETCHES SAME FILL-ORIGIN LEVEL: 0 DIFFERENT FILL-ORIGIN LEVEL: 0
L1D AVERAGE MISS LATENCY: 77.4539 cycles
L1D RQ	ACCESS:   17780981	FORWARD:          0	MERGED:    6867249	TO_CACHE:   10750769
L1D WQ	ACCESS:    1110839	FORWARD:     162963	MERGED:      37341	TO_CACHE:    1073498

Revised Interactions: positive negative neutral
L1D_interactions 0 0 0 -nan -nan -nan
L1D UNIQUE REGIONS ACCESSED: 0
L1D REGIONS CONFLICTS: 0
L1D Cross Page Prefetch Requests: 0
L1D Same Page Prefetch Requests: 0
L1D ROI Sum of L1D PQ occupancy: 0
L1D PREFETCHES PUSHED FROM L2C: 0
L1I TOTAL     ACCESS:    8188777  HIT:    8188777  MISS:          0  HIT %:        100  MISS %:          0   MPKI: 0
L1I LOAD      ACCESS:    8188777  HIT:    8188777  MISS:          0  HIT %:        100  MISS %:          0   MPKI: 0
L1I PREFETCH  REQUESTED:          0  ISSUED:          0  USEFUL:          0  USELESS:          0
L1I USEFUL LOAD PREFETCHES:          0 PREFETCH ISSUED TO LOWER LEVEL:          0  ACCURACY: -nan
L1I TIMELY PREFETCHES:          0 LATE PREFETCHES: 0 DROPPED PREFETCHES: 0
L1I PREFETCHES SAME FILL-ORIGIN LEVEL: 0 DIFFERENT FILL-ORIGIN LEVEL: 0
L1I AVERAGE MISS LATENCY: -nan cycles
L1I RQ	ACCESS:   11167145	FORWARD:          0	MERGED:    2978367	TO_CACHE:    8188778

Revised Interactions: positive negative neutral
L1I_interactions 0 0 0 -nan -nan -nan
BTB TOTAL     ACCESS:   14775571  HIT:   14712777  MISS:      62794  HIT %:     99.575  MISS %:   0.424985   MPKI: 1.25588
BTB BRANCH_DIRECT_JUMP	ACCESS:    1899352  HIT:    1899316  MISS:         36
BTB BRANCH_INDIRECT	ACCESS:          0  HIT:          0  MISS:          0
BTB BRANCH_CONDITIONAL	ACCESS:   12452231  HIT:   12452152  MISS:         79
BTB BRANCH_DIRECT_CALL	ACCESS:     195242  HIT:     195225  MISS:         17
BTB BRANCH_INDIRECT_CALL	ACCESS:      16752  HIT:      16744  MISS:          8
BTB BRANCH_RETURN	ACCESS:     211994  HIT:     149340  MISS:      62654
BTB BRANCH_OTHER ACCESS:          0  HIT:          0  MISS:          0

L2C TOTAL     ACCESS:    8090562  HIT:    2596710  MISS:    5493852  HIT %:    32.0955  MISS %:    67.9045   MPKI: 109.877
L2C LOAD      ACCESS:    7415519  HIT:    2254862  MISS:    5160657  HIT %:    30.4073  MISS %:    69.5927   MPKI: 103.213
L2C DATA LOAD MPKI: 103.213
L2C INSTRUCTION LOAD MPKI: 0
L2C RFO       ACCESS:      17684  HIT:      12276  MISS:       5408  HIT %:    69.4187  MISS %:    30.5813   MPKI: 0.10816
L2C PREFETCH  ACCESS:     456526  HIT:     177246  MISS:     279280  HIT %:     38.825  MISS %:     61.175   MPKI: 5.5856
L2C DATA PREFETCH MPKI: 5.5856
L2C INSTRUCTION PREFETCH MPKI: 0
L2C WRITEBACK ACCESS:     143246  HIT:     110507  MISS:      32739  HIT %:    77.1449  MISS %:    22.8551   MPKI: 0.65478
L2C LOAD TRANSLATION ACCESS:      57587  HIT:      41819  MISS:      15768  HIT %:    72.6188  MISS %:    27.3812   MPKI: 0.31536
L2C PREFETCH  REQUESTED:   11653823  ISSUED:   11653438  USEFUL:     227115  USELESS:      52130
L2C USEFUL LOAD PREFETCHES:     227115 PREFETCH ISSUED TO LOWER LEVEL:    7809197  ACCURACY: 2.9083
L2C TIMELY PREFETCHES:     227115 LATE PREFETCHES: 384302 DROPPED PREFETCHES: 0
L2C PREFETCHES SAME FILL-ORIGIN LEVEL: 663582 DIFFERENT FILL-ORIGIN LEVEL: 7145615
L2C AVERAGE MISS LATENCY: 88.7196 cycles
L2C RQ	ACCESS:    7490795	FORWARD:          0	MERGED:          0	TO_CACHE:    7490791
L2C WQ	ACCESS:     143246	FORWARD:          4	MERGED:          0	TO_CACHE:     143246
L2C PQ	ACCESS:   11653438	FORWARD:          0	MERGED:    2831526	TO_CACHE:    8821912

Revised Interactions: positive negative neutral
L2C_interactions 224283 52552 49304 68.7691 16.1134 15.1175
L2C Instructions Evicting Data 0
L2C Translations Evicting Data 15720
L2C Data Evicting Data 5429863
L2C Instructions Evicting Instructions 0
L2C Translations Evicting Instructions 0
L2C Data Evicting Instructions 0
L2C Instructions Evicting Translations 0
L2C Translations Evicting Translations 48
L2C Data Evicting Translations 15482
L2C Dense regions hint from L2: 0
PSCL5 TOTAL     ACCESS:      57052  HIT:      57052  MISS:          0  HIT %:        100  MISS %:          0   MPKI: 0
PSCL5 LOAD TRANSLATION ACCESS:      57052  HIT:      57052  MISS:          0  HIT %:        100  MISS %:          0   MPKI: 0
PSCL5 PREFETCH  REQUESTED:          0  ISSUED:          0  USEFUL:          0  USELESS:          0
PSCL5 USEFUL LOAD PREFETCHES:          0 PREFETCH ISSUED TO LOWER LEVEL:          0  ACCURACY: -nan
PSCL5 TIMELY PREFETCHES:          0 LATE PREFETCHES: 0 DROPPED PREFETCHES: 0
PSCL5 PREFETCHES SAME FILL-ORIGIN LEVEL: 0 DIFFERENT FILL-ORIGIN LEVEL: 0

Revised Interactions: positive negative neutral
PSCL5_interactions 0 0 0 -nan -nan -nan
PSCL4 TOTAL     ACCESS:      57052  HIT:      57052  MISS:          0  HIT %:        100  MISS %:          0   MPKI: 0
PSCL4 LOAD TRANSLATION ACCESS:      57052  HIT:      57052  MISS:          0  HIT %:        100  MISS %:          0   MPKI: 0
PSCL4 PREFETCH  REQUESTED:          0  ISSUED:          0  USEFUL:          0  USELESS:          0
PSCL4 USEFUL LOAD PREFETCHES:          0 PREFETCH ISSUED TO LOWER LEVEL:          0  ACCURACY: -nan
PSCL4 TIMELY PREFETCHES:          0 LATE PREFETCHES: 0 DROPPED PREFETCHES: 0
PSCL4 PREFETCHES SAME FILL-ORIGIN LEVEL: 0 DIFFERENT FILL-ORIGIN LEVEL: 0

Revised Interactions: positive negative neutral
PSCL4_interactions 0 0 0 -nan -nan -nan
PSCL3 TOTAL     ACCESS:      57052  HIT:      57052  MISS:          0  HIT %:        100  MISS %:          0   MPKI: 0
PSCL3 LOAD TRANSLATION ACCESS:      57052  HIT:      57052  MISS:          0  HIT %:        100  MISS %:          0   MPKI: 0
PSCL3 PREFETCH  REQUESTED:          0  ISSUED:          0  USEFUL:          0  USELESS:          0
PSCL3 USEFUL LOAD PREFETCHES:          0 PREFETCH ISSUED TO LOWER LEVEL:          0  ACCURACY: -nan
PSCL3 TIMELY PREFETCHES:          0 LATE PREFETCHES: 0 DROPPED PREFETCHES: 0
PSCL3 PREFETCHES SAME FILL-ORIGIN LEVEL: 0 DIFFERENT FILL-ORIGIN LEVEL: 0

Revised Interactions: positive negative neutral
PSCL3_interactions 0 0 0 -nan -nan -nan
PSCL2 TOTAL     ACCESS:      57052  HIT:      56318  MISS:        734  HIT %:    98.7135  MISS %:    1.28655   MPKI: 0.01468
PSCL2 LOAD TRANSLATION ACCESS:      57052  HIT:      56318  MISS:        734  HIT %:    98.7135  MISS %:    1.28655   MPKI: 0.01468
PSCL2 PREFETCH  REQUESTED:          0  ISSUED:          0  USEFUL:          0  USELESS:          0
PSCL2 USEFUL LOAD PREFETCHES:          0 PREFETCH ISSUED TO LOWER LEVEL:          0  ACCURACY: -nan
PSCL2 TIMELY PREFETCHES:          0 LATE PREFETCHES: 0 DROPPED PREFETCHES: 0
PSCL2 PREFETCHES SAME FILL-ORIGIN LEVEL: 0 DIFFERENT FILL-ORIGIN LEVEL: 0

Revised Interactions: positive negative neutral
PSCL2_interactions 0 0 0 -nan -nan -nan
LLC TOTAL     ACCESS:    9929898  HIT:    5758279  MISS:    4171619  HIT %:    57.9893  MISS %:    42.0107   MPKI: 83.4324
LLC LOAD      ACCESS:    4776355  HIT:    2894383  MISS:    1881972  HIT %:    60.5982  MISS %:    39.4018   MPKI: 37.6394
LLC RFO       ACCESS:       5408  HIT:       3326  MISS:       2082  HIT %:    61.5015  MISS %:    38.4985   MPKI: 0.04164
LLC PREFETCH  ACCESS:    5061726  HIT:    2808216  MISS:    2253510  HIT %:    55.4794  MISS %:    44.5206   MPKI: 45.0702
LLC WRITEBACK ACCESS:      70641  HIT:      46572  MISS:      24069  HIT %:    65.9277  MISS %:    34.0723   MPKI: 0.48138
LLC LOAD TRANSLATION ACCESS:      15768  HIT:       5782  MISS:       9986  HIT %:    36.6692  MISS %:    63.3308   MPKI: 0.19972
LLC PREFETCH  REQUESTED:          0  ISSUED:          0  USEFUL:    1281464  USELESS:     970554
LLC USEFUL LOAD PREFETCHES:    1281464 PREFETCH ISSUED TO LOWER LEVEL:    2725718  ACCURACY: 47.0138
LLC TIMELY PREFETCHES:    1281464 LATE PREFETCHES: 472207 DROPPED PREFETCHES: 0
LLC PREFETCHES SAME FILL-ORIGIN LEVEL: 2638816 DIFFERENT FILL-ORIGIN LEVEL: 0
LLC AVERAGE MISS LATENCY: 144.867 cycles
LLC RQ	ACCESS:    4797531	FORWARD:          0	MERGED:          0	TO_CACHE:    4797531
LLC WQ	ACCESS:      70641	FORWARD:          0	MERGED:          0	TO_CACHE:      70641
LLC PQ	ACCESS:    7809197	FORWARD:          0	MERGED:     592100	TO_CACHE:    7217097

Revised Interactions: positive negative neutral
LLC_interactions 1245806 1000118 422885 46.6802 37.4743 15.8455
LLC Dense regions hint to LLC: 0

RAW hits: 129346
Loads Generated: 17910327
Loads sent to L1D: 17780981
Stores Generated: 1110839
Stores sent to L1D: 1110839
Major fault: 0 Minor fault: 86300
Allocated PAGES: 86300
 All Calls: 14923955
 Critical Calls: 14923955
------------------
Depth Distribution
------------------
depth 0: 0
depth 1: 7233247
depth 2: 5183237
depth 3: 3843154
depth 4: 2584290
depth 5: 1405951
depth 6: 424582
depth 7: 34024
depth 8: 2326
depth 9: 0
depth 10: 0
depth 11: 0
depth 12: 0
depth 13: 0
depth 14: 0
depth 15: 0
depth 16: 0
depth 17: 0
depth 18: 0
depth 19: 0
depth 20: 0
depth 21: 0
depth 22: 0
depth 23: 0
depth 24: 0
depth 25: 0
depth 26: 0
depth 27: 0
depth 28: 0
depth 29: 0
Total: 20710811
-----------------------------
-----------------------------
	Captured at Filter
-----------------------------
depth 0: 0
depth 1: 51540
depth 2: 12091
depth 3: 8789
depth 4: 5871
depth 5: 3171
depth 6: 934
depth 7: 69
depth 8: 4
depth 9: 0
depth 10: 0
depth 11: 0
depth 12: 0
depth 13: 0
depth 14: 0
depth 15: 0
depth 16: 0
depth 17: 0
depth 18: 0
depth 19: 0
depth 20: 0
depth 21: 0
depth 22: 0
depth 23: 0
depth 24: 0
depth 25: 0
depth 26: 0
depth 27: 0
depth 28: 0
depth 29: 0
-----------------------------
-----------------------------
		Lost at Page
-----------------------------
depth 0: 0
depth 1: 199200
depth 2: 171750
depth 3: 188344
depth 4: 175418
depth 5: 118634
depth 6: 42951
depth 7: 4399
depth 8: 370
depth 9: 0
depth 10: 0
depth 11: 0
depth 12: 0
depth 13: 0
depth 14: 0
depth 15: 0
depth 16: 0
depth 17: 0
depth 18: 0
depth 19: 0
depth 20: 0
depth 21: 0
depth 22: 0
depth 23: 0
depth 24: 0
depth 25: 0
depth 26: 0
depth 27: 0
depth 28: 0
depth 29: 0
-----------------------------
-----------------------------
	Lost due to PQ Size
-----------------------------
947453
-----------------------------
ST read accesses: 4321456
ST write accesses: 3094063
PT read accesses: 100640549
PT write accesses: 5289390
FILTER read accesses: 24620385
FILTER write accesses: 7520105
GHR read accesses: 27531403
GHR write accesses: 513546
GHR counter read accesses: 93268866
GHR counter write accesses: 9420595
ST tag read accesses: 4434695158
ST tag write accesses: 955687132

DRAM Statistics
 CHANNEL 0
 RQ ROW_BUFFER_HIT:    1587210  ROW_BUFFER_MISS:    2560316
 DBUS_CONGESTED:        929
 WQ ROW_BUFFER_HIT:      14181  ROW_BUFFER_MISS:      40702  FULL:          0

 AVG_CONGESTED_CYCLE: 4
 All warmup complete: 2
Channel 0 Bank busy for read cycles: 0
Channel 0 Bank busy for write cycles: 0
Channel 0
Rank 0
0banks busy for read cycles: 93502885
0banks busy for write cycles: 33471
1banks busy for read cycles: 68672685
1banks busy for write cycles: 6856566
2banks busy for read cycles: 40439632
2banks busy for write cycles: 1297365
3banks busy for read cycles: 26637540
3banks busy for write cycles: 416812
4banks busy for read cycles: 18799563
4banks busy for write cycles: 193253
5banks busy for read cycles: 12594351
5banks busy for write cycles: 103465
6banks busy for read cycles: 7567318
6banks busy for write cycles: 81127
7banks busy for read cycles: 4026306
7banks busy for write cycles: 68042
8banks busy for read cycles: 2775242
8banks busy for write cycles: 68962

CPU 0 Branch Prediction Accuracy: 96.256% MPKI: 11.3017 Average ROB Occupancy at Mispredict: 44.693
Branch types
NOT_BRANCH: 34906690 69.8134%
BRANCH_DIRECT_JUMP: 1899352 3.7987%
BRANCH_INDIRECT: 0 0%
BRANCH_CONDITIONAL: 12769938 25.5399%
BRANCH_DIRECT_CALL: 195242 0.390484%
BRANCH_INDIRECT_CALL: 16752 0.033504%
BRANCH_RETURN: 211994 0.423988%
BRANCH_OTHER: 0 0%

@sumon_overall_L1D         0         0         0         0         0         0         0
@Sumon_Early_by_class_L1D         0         0         0         0
@Sumon_Late_by_class_L1D         0         0         0         0

@Sumon_Early_by_cycle_L1D         0         0         0         0         0         0         0         0         0         0         0         0
@Sumon_Late_by_cycle_L1D         0         0         0         0         0         0
@Sumon_Early_stream_L1D         0         0         0         0         0         0         0         0         0         0         0         0
@Sumon_Early_CS_L1D         0         0         0         0         0         0         0         0         0         0         0         0
@Sumon_Early_CPLX_L1D         0         0         0         0         0         0         0         0         0         0         0         0
@Sumon_Late_stream_L1D         0         0         0         0         0         0
@Sumon_Late_CS_L1D         0         0         0         0         0         0
@Sumon_Late_CPLX_L1D         0         0         0         0         0         0
@sumon_overall_L2C    227115    384302         0     52130    279280  11653438  11653823
@Sumon_Early_by_class_L2C         0         0         0         0
@Sumon_Late_by_class_L2C         0         0         0         0

@Sumon_Early_by_cycle_L2C     32226     71529    112172     10148       307        20        13        28        39       184       173       276
@Sumon_Late_by_cycle_L2C     18052    217546     26043     50997     71645        19
@Sumon_Early_stream_L2C         0         0         0         0         0         0         0         0         0         0         0         0
@Sumon_Early_CS_L2C         0         0         0         0         0         0         0         0         0         0         0         0
@Sumon_Early_CPLX_L2C         0         0         0         0         0         0         0         0         0         0         0         0
@Sumon_Late_stream_L2C         0         0         0         0         0         0
@Sumon_Late_CS_L2C         0         0         0         0         0         0
@Sumon_Late_CPLX_L2C         0         0         0         0         0         0
DRAM PAGES: 1048576
Allocated PAGES: 86300
