Initialize SIGNATURE TABLE
ST_SET: 1
ST_WAY: 256
ST_TAG_BIT: 16
ST_TAG_MASK: ffff

Initialize PATTERN TABLE
PT_SET: 512
PT_WAY: 4
SIG_DELTA_BIT: 7
C_SIG_BIT: 4
C_DELTA_BIT: 4

Initialize PREFETCH FILTER
FILTER_SET: 1024

*** ChampSim Multicore Out-of-Order Simulator ***

Warmup Instructions: 50000000
Simulation Instructions: 50000000
Number of CPUs: 1
LLC sets: 2048
LLC ways: 16
Off-chip DRAM Size: 4096 MB Channels: 1 Width: 64-bit Data Rate: 6400 MT/s
CPU 0 runs ../../biswa/SPEC2017Traces/605.mcf_s-484B.champsimtrace.xz
.xz
CPU 0 Bimodal branch predictor
BTB has LRU replacement policy
ITLB has LRU replacement policy
DTLB has LRU replacement policy
STLB has LRU replacement policy
L1I has LRU replacement policy
L1D has LRU replacement policy
ST_WAYS: 256
PT_SETS: 512
Initialize DRRIP state for L2C
Initialize DRRIP state for LLC
epoch: 1000
next table: 2347
cur table: 10037
epoch: 1000
next table: 2111
cur table: 2347
epoch: 1000
next table: 2104
cur table: 2111
epoch: 1000
next table: 2037
cur table: 2104
epoch: 1000
next table: 2036
cur table: 2037
epoch: 1000
next table: 2067
cur table: 2036
epoch: 1000
next table: 2018
cur table: 2067
epoch: 1000
next table: 2040
cur table: 2018
epoch: 1000
next table: 2020
cur table: 2040
epoch: 1000
next table: 2074
cur table: 2020
epoch: 1000
next table: 2041
cur table: 2074
epoch: 1000
next table: 2015
cur table: 2041
epoch: 1000
next table: 2053
cur table: 2015
epoch: 1000
next table: 2032
cur table: 2053
epoch: 1000
next table: 2076
cur table: 2032
epoch: 1000
next table: 2021
cur table: 2076
epoch: 1000
next table: 2037
cur table: 2021
epoch: 1000
next table: 2018
cur table: 2037
epoch: 1000
next table: 2089
cur table: 2018
epoch: 1000
next table: 2093
cur table: 2089
epoch: 1000
next table: 2614
cur table: 25545
epoch: 1000
next table: 2042
cur table: 2093
epoch: 1000
next table: 2029
cur table: 2042
epoch: 1000
next table: 2213
cur table: 2614
epoch: 1000
next table: 2075
cur table: 2029
epoch: 1000
next table: 2085
cur table: 2213
epoch: 1000
next table: 2052
cur table: 2075
epoch: 1000
next table: 1959
cur table: 2085
epoch: 1000
next table: 2092
cur table: 2052
epoch: 1000
next table: 1938
cur table: 1959
epoch: 1000
next table: 2043
cur table: 2092
epoch: 1000
next table: 1891
cur table: 1938
epoch: 1000
next table: 2030
cur table: 2043
epoch: 1000
next table: 1812
cur table: 1891
epoch: 1000
next table: 2069
cur table: 2030
epoch: 1000
next table: 1818
cur table: 1812
epoch: 1000
next table: 2025
cur table: 2069
epoch: 1000
next table: 1823
cur table: 1818
epoch: 1000
next table: 2031
cur table: 2025
epoch: 1000
next table: 1779
cur table: 1823
epoch: 1000
next table: 2045
cur table: 2031
epoch: 1000
next table: 1812
cur table: 1779
epoch: 1000
next table: 1791
cur table: 1812
epoch: 1000
next table: 2036
cur table: 2045
epoch: 1000
next table: 1779
cur table: 1791
epoch: 1000
next table: 2105
cur table: 2036
epoch: 1000
next table: 1767
cur table: 1779
epoch: 1000
next table: 2017
cur table: 2105
epoch: 1000
next table: 1779
cur table: 1767
epoch: 1000
next table: 2055
cur table: 2017
epoch: 1000
next table: 1773
cur table: 1779
epoch: 1000
next table: 2030
cur table: 2055
epoch: 1000
next table: 1780
cur table: 1773
epoch: 1000
next table: 2042
cur table: 2030
epoch: 1000
next table: 1769
cur table: 1780
epoch: 1000
next table: 1780
cur table: 1769
epoch: 1000
next table: 2086
cur table: 2042
epoch: 1000
next table: 1759
cur table: 1780
epoch: 1000
next table: 2040
cur table: 2086
epoch: 1000
next table: 1749
cur table: 1759
epoch: 1000
next table: 2048
cur table: 2040
epoch: 1000
next table: 1800
cur table: 1749
epoch: 1000
next table: 2045
cur table: 2048
epoch: 1000
next table: 1798
cur table: 1800
epoch: 1000
next table: 2077
cur table: 2045
epoch: 1000
next table: 1801
cur table: 1798
epoch: 1000
next table: 2017
cur table: 2077
epoch: 1000
next table: 1763
cur table: 1801
epoch: 1000
next table: 2036
cur table: 2017
epoch: 1000
next table: 1754
cur table: 1763
epoch: 1000
next table: 1739
cur table: 1754
epoch: 1000
next table: 2086
cur table: 2036
epoch: 1000
next table: 1744
cur table: 1739
epoch: 1000
next table: 2059
cur table: 2086
epoch: 1000
next table: 1742
cur table: 1744
epoch: 1000
next table: 2111
cur table: 2059
epoch: 1000
next table: 1797
cur table: 1742
epoch: 1000
next table: 2050
cur table: 2111
epoch: 1000
next table: 1785
cur table: 1797
epoch: 1000
next table: 2065
cur table: 2050
epoch: 1000
next table: 1782
cur table: 1785
epoch: 1000
next table: 1792
cur table: 1782
epoch: 1000
next table: 2052
cur table: 2065
epoch: 1000
next table: 1759
cur table: 1792
epoch: 1000
next table: 2028
cur table: 2052
epoch: 1000
next table: 1783
cur table: 1759
epoch: 1000
next table: 2110
cur table: 2028
epoch: 1000
next table: 1736
cur table: 1783
epoch: 1000
next table: 2064
cur table: 2110
epoch: 1000
next table: 1748
cur table: 1736
epoch: 1000
next table: 2114
cur table: 2064
epoch: 1000
next table: 1776
cur table: 1748
epoch: 1000
next table: 1779
cur table: 1776
epoch: 1000
next table: 2051
cur table: 2114
epoch: 1000
next table: 1784
cur table: 1779
epoch: 1000
next table: 2065
cur table: 2051
epoch: 1000
next table: 1771
cur table: 1784
epoch: 1000
next table: 2093
cur table: 2065
epoch: 1000
next table: 1803
cur table: 1771
epoch: 1000
next table: 2062
cur table: 2093
epoch: 1000
next table: 1781
cur table: 1803
epoch: 1000
next table: 2127
cur table: 2062
epoch: 1000
next table: 1798
cur table: 1781
epoch: 1000
next table: 1766
cur table: 1798
epoch: 1000
next table: 2039
cur table: 2127
epoch: 1000
next table: 1760
cur table: 1766
epoch: 1000
next table: 2078
cur table: 2039
epoch: 1000
next table: 1756
cur table: 1760
epoch: 1000
next table: 2035
cur table: 2078
epoch: 1000
next table: 1768
cur table: 1756
epoch: 1000
next table: 2066
cur table: 2035
epoch: 1000
next table: 1776
cur table: 1768
epoch: 1000
next table: 2019
cur table: 2066
epoch: 1000
next table: 1786
cur table: 1776
epoch: 1000
next table: 2032
cur table: 2019
epoch: 1000
next table: 1748
cur table: 1786
epoch: 1000
next table: 1781
cur table: 1748
epoch: 1000
next table: 2036
cur table: 2032
epoch: 1000
next table: 1764
cur table: 1781
epoch: 1000
next table: 2034
cur table: 2036
epoch: 1000
next table: 1806
cur table: 1764
epoch: 1000
next table: 2104
cur table: 2034
epoch: 1000
next table: 1805
cur table: 1806
epoch: 1000
next table: 2053
cur table: 2104
epoch: 1000
next table: 1764
cur table: 1805
epoch: 1000
next table: 2067
cur table: 2053
epoch: 1000
next table: 1779
cur table: 1764
epoch: 1000
next table: 2054
cur table: 2067
epoch: 1000
next table: 1782
cur table: 1779
epoch: 1000
next table: 2046
cur table: 2054
epoch: 1000
next table: 1712
cur table: 1782
epoch: 1000
next table: 1738
cur table: 1712
epoch: 1000
next table: 2051
cur table: 2046
epoch: 1000
next table: 1802
cur table: 1738
epoch: 1000
next table: 2106
cur table: 2051
epoch: 1000
next table: 1734
cur table: 1802
epoch: 1000
next table: 2063
cur table: 2106
epoch: 1000
next table: 1736
cur table: 1734
epoch: 1000
next table: 2033
cur table: 2063
epoch: 1000
next table: 1754
cur table: 1736
epoch: 1000
next table: 2095
cur table: 2033
epoch: 1000
next table: 1765
cur table: 1754
epoch: 1000
next table: 1756
cur table: 1765
epoch: 1000
next table: 2058
cur table: 2095
epoch: 1000
next table: 1769
cur table: 1756
epoch: 1000
next table: 2030
cur table: 2058
epoch: 1000
next table: 1762
cur table: 1769
epoch: 1000
next table: 2017
cur table: 2030
epoch: 1000
next table: 1734
cur table: 1762
epoch: 1000
next table: 2081
cur table: 2017
epoch: 1000
next table: 1775
cur table: 1734
epoch: 1000
next table: 2020
cur table: 2081
epoch: 1000
next table: 1780
cur table: 1775
epoch: 1000
next table: 2026
cur table: 2020
epoch: 1000
next table: 1799
cur table: 1780
epoch: 1000
next table: 1840
cur table: 1799
epoch: 1000
next table: 2031
cur table: 2026
epoch: 1000
next table: 1842
cur table: 1840
epoch: 1000
next table: 2027
cur table: 2031
epoch: 1000
next table: 1865
cur table: 1842
epoch: 1000
next table: 2022
cur table: 2027
epoch: 1000
next table: 1845
cur table: 1865
epoch: 1000
next table: 2033
cur table: 2022
epoch: 1000
next table: 1853
cur table: 1845
epoch: 1000
next table: 2035
cur table: 2033
epoch: 1000
next table: 1826
cur table: 1853
epoch: 1000
next table: 2048
cur table: 2035
epoch: 1000
next table: 1863
cur table: 1826
epoch: 1000
next table: 2024
cur table: 2048
epoch: 1000
next table: 1853
cur table: 1863
epoch: 1000
next table: 2030
cur table: 2024
epoch: 1000
next table: 1846
cur table: 1853
epoch: 1000
next table: 2030
cur table: 2030
epoch: 1000
next table: 1848
cur table: 1846
epoch: 1000
next table: 2019
cur table: 2030
epoch: 1000
next table: 1861
cur table: 1848
epoch: 1000
next table: 2055
cur table: 2019
epoch: 1000
next table: 1854
cur table: 1861
epoch: 1000
next table: 2082
cur table: 2055
epoch: 1000
next table: 1875
cur table: 1854
epoch: 1000
next table: 2065
cur table: 2082
epoch: 1000
next table: 1883
cur table: 1875
epoch: 1000
next table: 1859
cur table: 1883
epoch: 1000
next table: 2051
cur table: 2065
epoch: 1000
next table: 1878
cur table: 1859
epoch: 1000
next table: 2069
cur table: 2051
epoch: 1000
next table: 1870
cur table: 1878
epoch: 1000
next table: 2045
cur table: 2069
epoch: 1000
next table: 1860
cur table: 1870
epoch: 1000
next table: 2024
cur table: 2045
epoch: 1000
next table: 1877
cur table: 1860
epoch: 1000
next table: 2085
cur table: 2024
epoch: 1000
next table: 1886
cur table: 1877
epoch: 1000
next table: 2025
cur table: 2085
epoch: 1000
next table: 1872
cur table: 1886
epoch: 1000
next table: 2089
cur table: 2025
epoch: 1000
next table: 1872
cur table: 1872
epoch: 1000
next table: 2022
cur table: 2089
epoch: 1000
next table: 1885
cur table: 1872
epoch: 1000
next table: 2075
cur table: 2022
epoch: 1000
next table: 1864
cur table: 1885
epoch: 1000
next table: 2024
cur table: 2075
epoch: 1000
next table: 1871
cur table: 1864
epoch: 1000
next table: 2066
cur table: 2024
epoch: 1000
next table: 1870
cur table: 1871
epoch: 1000
next table: 2065
cur table: 2066
epoch: 1000
next table: 1909
cur table: 1870
epoch: 1000
next table: 2042
cur table: 2065
epoch: 1000
next table: 1884
cur table: 1909
epoch: 1000
next table: 2021
cur table: 2042
epoch: 1000
next table: 1863
cur table: 1884
epoch: 1000
next table: 2023
cur table: 2021
epoch: 1000
next table: 1872
cur table: 1863
epoch: 1000
next table: 1882
cur table: 1872
epoch: 1000
next table: 2055
cur table: 2023
epoch: 1000
next table: 1862
cur table: 1882
epoch: 1000
next table: 2042
cur table: 2055
epoch: 1000
next table: 1887
cur table: 1862
epoch: 1000
next table: 2028
cur table: 2042
epoch: 1000
next table: 1877
cur table: 1887
epoch: 1000
next table: 2036
cur table: 2028
epoch: 1000
next table: 1863
cur table: 1877
epoch: 1000
next table: 2055
cur table: 2036
epoch: 1000
next table: 1856
cur table: 1863
epoch: 1000
next table: 2038
cur table: 2055
epoch: 1000
next table: 1888
cur table: 1856
epoch: 1000
next table: 2088
cur table: 2038
epoch: 1000
next table: 1853
cur table: 1888
epoch: 1000
next table: 2046
cur table: 2088
epoch: 1000
next table: 1877
cur table: 1853
epoch: 1000
next table: 2060
cur table: 2046
epoch: 1000
next table: 1886
cur table: 1877
epoch: 1000
next table: 2066
cur table: 2060
epoch: 1000
next table: 1868
cur table: 1886
epoch: 1000
next table: 2053
cur table: 2066
epoch: 1000
next table: 1851
cur table: 1868
epoch: 1000
next table: 2069
cur table: 2053
epoch: 1000
next table: 1874
cur table: 1851
epoch: 1000
next table: 2051
cur table: 2069
epoch: 1000
next table: 1872
cur table: 1874
epoch: 1000
next table: 2053
cur table: 2051
epoch: 1000
next table: 1877
cur table: 1872
epoch: 1000
next table: 1857
cur table: 1877
epoch: 1000
next table: 2056
cur table: 2053
epoch: 1000
next table: 1882
cur table: 1857
epoch: 1000
next table: 2053
cur table: 2056
epoch: 1000
next table: 1881
cur table: 1882
epoch: 1000
next table: 2079
cur table: 2053
epoch: 1000
next table: 1887
cur table: 1881
epoch: 1000
next table: 2046
cur table: 2079
epoch: 1000
next table: 1885
cur table: 1887
epoch: 1000
next table: 2020
cur table: 2046
epoch: 1000
next table: 1887
cur table: 1885
epoch: 1000
next table: 2018
cur table: 2020
epoch: 1000
next table: 1884
cur table: 1887
epoch: 1000
next table: 2022
cur table: 2018
epoch: 1000
next table: 1878
cur table: 1884
epoch: 1000
next table: 2021
cur table: 2022
epoch: 1000
next table: 1898
cur table: 1878
epoch: 1000
next table: 2019
cur table: 2021
epoch: 1000
next table: 1885
cur table: 1898
epoch: 1000
next table: 2022
cur table: 2019
epoch: 1000
next table: 1935
cur table: 1885
epoch: 1000
next table: 2023
cur table: 2022
epoch: 1000
next table: 1830
cur table: 1935
epoch: 1000
next table: 2022
cur table: 2023
epoch: 1000
next table: 1820
cur table: 1830
epoch: 1000
next table: 2029
cur table: 2022
epoch: 1000
next table: 1770
cur table: 1820
epoch: 1000
next table: 2053
cur table: 2029
epoch: 1000
next table: 1810
cur table: 1770
epoch: 1000
next table: 2023
cur table: 2053
epoch: 1000
next table: 1822
cur table: 1810
epoch: 1000
next table: 2035
cur table: 2023
epoch: 1000
next table: 1776
cur table: 1822
epoch: 1000
next table: 1731
cur table: 1776
epoch: 1000
next table: 2022
cur table: 2035
epoch: 1000
next table: 1768
cur table: 1731
epoch: 1000
next table: 2048
cur table: 2022
epoch: 1000
next table: 1799
cur table: 1768
epoch: 1000
next table: 2033
cur table: 2048
epoch: 1000
next table: 1739
cur table: 1799
epoch: 1000
next table: 2018
cur table: 2033
epoch: 1000
next table: 1811
cur table: 1739
epoch: 1000
next table: 2058
cur table: 2018
epoch: 1000
next table: 1774
cur table: 1811
epoch: 1000
next table: 2032
cur table: 2058
epoch: 1000
next table: 1738
cur table: 1774
epoch: 1000
next table: 2038
cur table: 2032
epoch: 1000
next table: 1753
cur table: 1738
epoch: 1000
next table: 2058
cur table: 2038
epoch: 1000
next table: 1742
cur table: 1753
epoch: 1000
next table: 2067
cur table: 2058
epoch: 1000
next table: 1758
cur table: 1742
epoch: 1000
next table: 2040
cur table: 2067
epoch: 1000
next table: 1795
cur table: 1758
epoch: 1000
next table: 1789
cur table: 1795
epoch: 1000
next table: 2044
cur table: 2040
epoch: 1000
next table: 1787
cur table: 1789
epoch: 1000
next table: 2032
cur table: 2044
epoch: 1000
next table: 1770
cur table: 1787
epoch: 1000
next table: 2038
cur table: 2032
epoch: 1000
next table: 1806
cur table: 1770
epoch: 1000
next table: 2026
cur table: 2038
epoch: 1000
next table: 1808
cur table: 1806
epoch: 1000
next table: 2017
cur table: 2026
epoch: 1000
next table: 1839
cur table: 1808
epoch: 1000
next table: 2101
cur table: 2017
epoch: 1000
next table: 1799
cur table: 1839
epoch: 1000
next table: 2027
cur table: 2101
epoch: 1000
next table: 1788
cur table: 1799
epoch: 1000
next table: 2056
cur table: 2027
epoch: 1000
next table: 1772
cur table: 1788
epoch: 1000
next table: 2032
cur table: 2056
epoch: 1000
next table: 1748
cur table: 1772
epoch: 1000
next table: 1766
cur table: 1748
epoch: 1000
next table: 2054
cur table: 2032
epoch: 1000
next table: 1807
cur table: 1766
epoch: 1000
next table: 2019
cur table: 2054
epoch: 1000
next table: 1785
cur table: 1807
epoch: 1000
next table: 2029
cur table: 2019
epoch: 1000
next table: 1793
cur table: 1785
epoch: 1000
next table: 2040
cur table: 2029
epoch: 1000
next table: 1767
cur table: 1793
epoch: 1000
next table: 2019
cur table: 2040
epoch: 1000
next table: 1788
cur table: 1767
Heartbeat CPU 0 instructions: 10000001 cycles: 3195528 heartbeat IPC: 3.12937 cumulative IPC: 3.12937 (Simulation time: 0 hr 2 min 44 sec) 
epoch: 1000
next table: 2061
cur table: 2019
epoch: 1000
next table: 1800
cur table: 1788
epoch: 1000
next table: 2028
cur table: 2061
epoch: 1000
next table: 1834
cur table: 1800
epoch: 1000
next table: 2018
cur table: 2028
epoch: 1000
next table: 1789
cur table: 1834
epoch: 1000
next table: 1773
cur table: 1789
epoch: 1000
next table: 2037
cur table: 2018
epoch: 1000
next table: 1768
cur table: 1773
epoch: 1000
next table: 2017
cur table: 2037
epoch: 1000
next table: 1817
cur table: 1768
epoch: 1000
next table: 2072
cur table: 2017
epoch: 1000
next table: 1794
cur table: 1817
epoch: 1000
next table: 2024
cur table: 2072
epoch: 1000
next table: 1779
cur table: 1794
epoch: 1000
next table: 2048
cur table: 2024
epoch: 1000
next table: 1769
cur table: 1779
epoch: 1000
next table: 2022
cur table: 2048
epoch: 1000
next table: 1805
cur table: 1769
epoch: 1000
next table: 2096
cur table: 2022
epoch: 1000
next table: 1787
cur table: 1805
epoch: 1000
next table: 1768
cur table: 1787
epoch: 1000
next table: 2038
cur table: 2096
epoch: 1000
next table: 1789
cur table: 1768
epoch: 1000
next table: 2056
cur table: 2038
epoch: 1000
next table: 1789
cur table: 1789
epoch: 1000
next table: 2084
cur table: 2056
epoch: 1000
next table: 1798
cur table: 1789
epoch: 1000
next table: 2111
cur table: 2084
epoch: 1000
next table: 1820
cur table: 1798
epoch: 1000
next table: 2064
cur table: 2111
epoch: 1000
next table: 1800
cur table: 1820
epoch: 1000
next table: 1808
cur table: 1800
epoch: 1000
next table: 2045
cur table: 2064
epoch: 1000
next table: 1804
cur table: 1808
epoch: 1000
next table: 2102
cur table: 2045
epoch: 1000
next table: 1761
cur table: 1804
epoch: 1000
next table: 2043
cur table: 2102
epoch: 1000
next table: 1806
cur table: 1761
epoch: 1000
next table: 2068
cur table: 2043
epoch: 1000
next table: 1770
cur table: 1806
epoch: 1000
next table: 2095
cur table: 2068
epoch: 1000
next table: 1774
cur table: 1770
epoch: 1000
next table: 2031
cur table: 2095
epoch: 1000
next table: 1816
cur table: 1774
epoch: 1000
next table: 1724
cur table: 1816
epoch: 1000
next table: 2020
cur table: 2031
epoch: 1000
next table: 1689
cur table: 1724
epoch: 1000
next table: 2020
cur table: 2020
epoch: 1000
next table: 1704
cur table: 1689
epoch: 1000
next table: 2017
cur table: 2020
epoch: 1000
next table: 1709
cur table: 1704
epoch: 1000
next table: 2030
cur table: 2017
epoch: 1000
next table: 1646
cur table: 1709
epoch: 1000
next table: 2023
cur table: 2030
epoch: 1000
next table: 1738
cur table: 1646
epoch: 1000
next table: 2058
cur table: 2023
epoch: 1000
next table: 1734
cur table: 1738
epoch: 1000
next table: 2028
cur table: 2058
epoch: 1000
next table: 1753
cur table: 1734
epoch: 1000
next table: 2017
cur table: 2028
epoch: 1000
next table: 1699
cur table: 1753
epoch: 1000
next table: 2027
cur table: 2017
epoch: 1000
next table: 1738
cur table: 1699
epoch: 1000
next table: 2055
cur table: 2027
epoch: 1000
next table: 1803
cur table: 1738
epoch: 1000
next table: 2019
cur table: 2055
epoch: 1000
next table: 1764
cur table: 1803
epoch: 1000
next table: 2049
cur table: 2019
epoch: 1000
next table: 1722
cur table: 1764
epoch: 1000
next table: 2018
cur table: 2049
epoch: 1000
next table: 1730
cur table: 1722
epoch: 1000
next table: 2016
cur table: 2018
epoch: 1000
next table: 1788
cur table: 1730
epoch: 1000
next table: 2078
cur table: 2016
epoch: 1000
next table: 1739
cur table: 1788
epoch: 1000
next table: 2020
cur table: 2078
epoch: 1000
next table: 1722
cur table: 1739
epoch: 1000
next table: 1707
cur table: 1722
epoch: 1000
next table: 2043
cur table: 2020
epoch: 1000
next table: 1760
cur table: 1707
epoch: 1000
next table: 2018
cur table: 2043
epoch: 1000
next table: 1715
cur table: 1760
epoch: 1000
next table: 2051
cur table: 2018
epoch: 1000
next table: 1679
cur table: 1715
epoch: 1000
next table: 2030
cur table: 2051
epoch: 1000
next table: 1732
cur table: 1679
epoch: 1000
next table: 2014
cur table: 2030
epoch: 1000
next table: 1735
cur table: 1732
epoch: 1000
next table: 2051
cur table: 2014
epoch: 1000
next table: 1706
cur table: 1735
epoch: 1000
next table: 2035
cur table: 2051
epoch: 1000
next table: 1738
cur table: 1706
epoch: 1000
next table: 2022
cur table: 2035
epoch: 1000
next table: 1755
cur table: 1738
epoch: 1000
next table: 2030
cur table: 2022
epoch: 1000
next table: 1763
cur table: 1755
epoch: 1000
next table: 2020
cur table: 2030
epoch: 1000
next table: 1781
cur table: 1763
epoch: 1000
next table: 2023
cur table: 2020
epoch: 1000
next table: 1806
cur table: 1781
epoch: 1000
next table: 1815
cur table: 1806
epoch: 1000
next table: 2026
cur table: 2023
epoch: 1000
next table: 1822
cur table: 1815
epoch: 1000
next table: 2019
cur table: 2026
epoch: 1000
next table: 1845
cur table: 1822
epoch: 1000
next table: 2046
cur table: 2019
epoch: 1000
next table: 1888
cur table: 1845
epoch: 1000
next table: 2029
cur table: 2046
epoch: 1000
next table: 1845
cur table: 1888
epoch: 1000
next table: 2028
cur table: 2029
epoch: 1000
next table: 1855
cur table: 1845
epoch: 1000
next table: 2037
cur table: 2028
epoch: 1000
next table: 1834
cur table: 1855
epoch: 1000
next table: 2024
cur table: 2037
epoch: 1000
next table: 1862
cur table: 1834
epoch: 1000
next table: 2025
cur table: 2024
epoch: 1000
next table: 1867
cur table: 1862
epoch: 1000
next table: 2028
cur table: 2025
epoch: 1000
next table: 1849
cur table: 1867
epoch: 1000
next table: 2036
cur table: 2028
epoch: 1000
next table: 1861
cur table: 1849
epoch: 1000
next table: 2021
cur table: 2036
epoch: 1000
next table: 1873
cur table: 1861
epoch: 1000
next table: 2050
cur table: 2021
epoch: 1000
next table: 1875
cur table: 1873
epoch: 1000
next table: 2059
cur table: 2050
epoch: 1000
next table: 1848
cur table: 1875
epoch: 1000
next table: 1877
cur table: 1848
epoch: 1000
next table: 2052
cur table: 2059
epoch: 1000
next table: 1880
cur table: 1877
epoch: 1000
next table: 2050
cur table: 2052
epoch: 1000
next table: 1874
cur table: 1880
epoch: 1000
next table: 2057
cur table: 2050
epoch: 1000
next table: 1839
cur table: 1874
epoch: 1000
next table: 2051
cur table: 2057
epoch: 1000
next table: 1872
cur table: 1839
epoch: 1000
next table: 2025
cur table: 2051
epoch: 1000
next table: 1885
cur table: 1872
epoch: 1000
next table: 2077
cur table: 2025
epoch: 1000
next table: 1879
cur table: 1885
epoch: 1000
next table: 2021
cur table: 2077
epoch: 1000
next table: 1864
cur table: 1879
epoch: 1000
next table: 2080
cur table: 2021
epoch: 1000
next table: 1879
cur table: 1864
epoch: 1000
next table: 2030
cur table: 2080
epoch: 1000
next table: 1884
cur table: 1879
epoch: 1000
next table: 2063
cur table: 2030
epoch: 1000
next table: 1883
cur table: 1884
epoch: 1000
next table: 2017
cur table: 2063
epoch: 1000
next table: 1868
cur table: 1883
epoch: 1000
next table: 2050
cur table: 2017
epoch: 1000
next table: 1844
cur table: 1868
epoch: 1000
next table: 2054
cur table: 2050
epoch: 1000
next table: 1859
cur table: 1844
epoch: 1000
next table: 1858
cur table: 1859
epoch: 1000
next table: 2051
cur table: 2054
epoch: 1000
next table: 1861
cur table: 1858
epoch: 1000
next table: 2024
cur table: 2051
epoch: 1000
next table: 1874
cur table: 1861
epoch: 1000
next table: 2020
cur table: 2024
epoch: 1000
next table: 1876
cur table: 1874
epoch: 1000
next table: 2058
cur table: 2020
epoch: 1000
next table: 1866
cur table: 1876
epoch: 1000
next table: 2042
cur table: 2058
epoch: 1000
next table: 1878
cur table: 1866
epoch: 1000
next table: 2029
cur table: 2042
epoch: 1000
next table: 1881
cur table: 1878
epoch: 1000
next table: 2023
cur table: 2029
epoch: 1000
next table: 1862
cur table: 1881
epoch: 1000
next table: 2054
cur table: 2023
epoch: 1000
next table: 1843
cur table: 1862
epoch: 1000
next table: 2021
cur table: 2054
epoch: 1000
next table: 1870
cur table: 1843
epoch: 1000
next table: 2093
cur table: 2021
epoch: 1000
next table: 1862
cur table: 1870
epoch: 1000
next table: 2050
cur table: 2093
epoch: 1000
next table: 1878
cur table: 1862
epoch: 1000
next table: 2073
cur table: 2050
epoch: 1000
next table: 1876
cur table: 1878
epoch: 1000
next table: 2064
cur table: 2073
epoch: 1000
next table: 1882
cur table: 1876
epoch: 1000
next table: 2049
cur table: 2064
epoch: 1000
next table: 1865
cur table: 1882
epoch: 1000
next table: 1872
cur table: 1865
epoch: 1000
next table: 2068
cur table: 2049
epoch: 1000
next table: 1873
cur table: 1872
epoch: 1000
next table: 2066
cur table: 2068
epoch: 1000
next table: 1866
cur table: 1873
epoch: 1000
next table: 2052
cur table: 2066
epoch: 1000
next table: 1870
cur table: 1866
epoch: 1000
next table: 2062
cur table: 2052
epoch: 1000
next table: 1884
cur table: 1870
epoch: 1000
next table: 2051
cur table: 2062
epoch: 1000
next table: 1874
cur table: 1884
epoch: 1000
next table: 2088
cur table: 2051
epoch: 1000
next table: 1880
cur table: 1874
epoch: 1000
next table: 2051
cur table: 2088
epoch: 1000
next table: 1882
cur table: 1880
epoch: 1000
next table: 2018
cur table: 2051
epoch: 1000
next table: 1878
cur table: 1882
epoch: 1000
next table: 2021
cur table: 2018
epoch: 1000
next table: 1885
cur table: 1878
epoch: 1000
next table: 2021
cur table: 2021
epoch: 1000
next table: 1884
cur table: 1885
epoch: 1000
next table: 2021
cur table: 2021
epoch: 1000
next table: 1894
cur table: 1884
epoch: 1000
next table: 2018
cur table: 2021
epoch: 1000
next table: 1860
cur table: 1894
epoch: 1000
next table: 2024
cur table: 2018
epoch: 1000
next table: 1880
cur table: 1860
epoch: 1000
next table: 2019
cur table: 2024
epoch: 1000
next table: 1777
cur table: 1880
epoch: 1000
next table: 1756
cur table: 1777
epoch: 1000
next table: 2019
cur table: 2019
epoch: 1000
next table: 1782
cur table: 1756
epoch: 1000
next table: 2016
cur table: 2019
epoch: 1000
next table: 1863
cur table: 1782
epoch: 1000
next table: 2031
cur table: 2016
epoch: 1000
next table: 1811
cur table: 1863
epoch: 1000
next table: 2017
cur table: 2031
epoch: 1000
next table: 1782
cur table: 1811
epoch: 1000
next table: 2043
cur table: 2017
epoch: 1000
next table: 1764
cur table: 1782
epoch: 1000
next table: 2028
cur table: 2043
epoch: 1000
next table: 1760
cur table: 1764
epoch: 1000
next table: 2035
cur table: 2028
epoch: 1000
next table: 1778
cur table: 1760
epoch: 1000
next table: 2052
cur table: 2035
epoch: 1000
next table: 1776
cur table: 1778
epoch: 1000
next table: 2043
cur table: 2052
epoch: 1000
next table: 1767
cur table: 1776
epoch: 1000
next table: 2030
cur table: 2043
epoch: 1000
next table: 1802
cur table: 1767
epoch: 1000
next table: 2031
cur table: 2030
epoch: 1000
next table: 1753
cur table: 1802
epoch: 1000
next table: 2047
cur table: 2031
epoch: 1000
next table: 1765
cur table: 1753
epoch: 1000
next table: 2051
cur table: 2047
epoch: 1000
next table: 1752
cur table: 1765
epoch: 1000
next table: 2070
cur table: 2051
epoch: 1000
next table: 1768
cur table: 1752
epoch: 1000
next table: 2018
cur table: 2070
epoch: 1000
next table: 1767
cur table: 1768
epoch: 1000
next table: 2020
cur table: 2018
epoch: 1000
next table: 1783
cur table: 1767
epoch: 1000
next table: 2018
cur table: 2020
epoch: 1000
next table: 1747
cur table: 1783
epoch: 1000
next table: 2020
cur table: 2018
epoch: 1000
next table: 1757
cur table: 1747
epoch: 1000
next table: 2055
cur table: 2020
epoch: 1000
next table: 1777
cur table: 1757
epoch: 1000
next table: 2062
cur table: 2055
epoch: 1000
next table: 1765
cur table: 1777
epoch: 1000
next table: 2052
cur table: 2062
epoch: 1000
next table: 1765
cur table: 1765
epoch: 1000
next table: 2066
cur table: 2052
epoch: 1000
next table: 1785
cur table: 1765
epoch: 1000
next table: 1779
cur table: 1785
epoch: 1000
next table: 2054
cur table: 2066
epoch: 1000
next table: 1779
cur table: 1779
epoch: 1000
next table: 2070
cur table: 2054
epoch: 1000
next table: 1786
cur table: 1779
epoch: 1000
next table: 2087
cur table: 2070
epoch: 1000
next table: 1773
cur table: 1786
epoch: 1000
next table: 2018
cur table: 2087
epoch: 1000
next table: 1763
cur table: 1773
epoch: 1000
next table: 2059
cur table: 2018
epoch: 1000
next table: 1768
cur table: 1763
epoch: 1000
next table: 2069
cur table: 2059
epoch: 1000
next table: 1765
cur table: 1768
epoch: 1000
next table: 2061
cur table: 2069
epoch: 1000
next table: 1764
cur table: 1765
epoch: 1000
next table: 2066
cur table: 2061
epoch: 1000
next table: 1780
cur table: 1764
epoch: 1000
next table: 2061
cur table: 2066
epoch: 1000
next table: 1734
cur table: 1780
epoch: 1000
next table: 2022
cur table: 2061
epoch: 1000
next table: 1769
cur table: 1734
epoch: 1000
next table: 2053
cur table: 2022
epoch: 1000
next table: 1781
cur table: 1769
epoch: 1000
next table: 2037
cur table: 2053
epoch: 1000
next table: 1803
cur table: 1781
epoch: 1000
next table: 2052
cur table: 2037
epoch: 1000
next table: 1840
cur table: 1803
epoch: 1000
next table: 2060
cur table: 2052
epoch: 1000
next table: 1844
cur table: 1840
epoch: 1000
next table: 2060
cur table: 2060
epoch: 1000
next table: 1858
cur table: 1844
epoch: 1000
next table: 2064
cur table: 2060
epoch: 1000
next table: 1876
cur table: 1858
epoch: 1000
next table: 2018
cur table: 2064
epoch: 1000
next table: 1887
cur table: 1876
epoch: 1000
next table: 2019
cur table: 2018
epoch: 1000
next table: 1873
cur table: 1887
epoch: 1000
next table: 1859
cur table: 1873
epoch: 1000
next table: 2022
cur table: 2019
epoch: 1000
next table: 1888
cur table: 1859
epoch: 1000
next table: 2021
cur table: 2022
epoch: 1000
next table: 1861
cur table: 1888
epoch: 1000
next table: 2020
cur table: 2021
epoch: 1000
next table: 1864
cur table: 1861
epoch: 1000
next table: 2019
cur table: 2020
epoch: 1000
next table: 1846
cur table: 1864
epoch: 1000
next table: 2022
cur table: 2019
epoch: 1000
next table: 1849
cur table: 1846
epoch: 1000
next table: 2021
cur table: 2022
epoch: 1000
next table: 1872
cur table: 1849
epoch: 1000
next table: 2022
cur table: 2021
epoch: 1000
next table: 1859
cur table: 1872
epoch: 1000
next table: 2021
cur table: 2022
epoch: 1000
next table: 1881
cur table: 1859
epoch: 1000
next table: 2023
cur table: 2021
epoch: 1000
next table: 1885
cur table: 1881
epoch: 1000
next table: 2022
cur table: 2023
epoch: 1000
next table: 1868
cur table: 1885
epoch: 1000
next table: 2023
cur table: 2022
epoch: 1000
next table: 1878
cur table: 1868
epoch: 1000
next table: 2025
cur table: 2023
epoch: 1000
next table: 1879
cur table: 1878
epoch: 1000
next table: 2021
cur table: 2025
epoch: 1000
next table: 1865
cur table: 1879
epoch: 1000
next table: 1891
cur table: 1865
epoch: 1000
next table: 2026
cur table: 2021
epoch: 1000
next table: 1876
cur table: 1891
epoch: 1000
next table: 2020
cur table: 2026
epoch: 1000
next table: 1885
cur table: 1876
epoch: 1000
next table: 2022
cur table: 2020
epoch: 1000
next table: 1871
cur table: 1885
epoch: 1000
next table: 2021
cur table: 2022
epoch: 1000
next table: 1866
cur table: 1871
epoch: 1000
next table: 2025
cur table: 2021
epoch: 1000
next table: 1880
cur table: 1866
epoch: 1000
next table: 2022
cur table: 2025
epoch: 1000
next table: 1883
cur table: 1880
epoch: 1000
next table: 2023
cur table: 2022
epoch: 1000
next table: 1860
cur table: 1883
epoch: 1000
next table: 2021
cur table: 2023
epoch: 1000
next table: 1861
cur table: 1860
epoch: 1000
next table: 2022
cur table: 2021
epoch: 1000
next table: 1875
cur table: 1861
epoch: 1000
next table: 2016
cur table: 2022
epoch: 1000
next table: 1864
cur table: 1875
epoch: 1000
next table: 2021
cur table: 2016
epoch: 1000
next table: 1899
cur table: 1864
epoch: 1000
next table: 2024
cur table: 2021
epoch: 1000
next table: 1864
cur table: 1899
epoch: 1000
next table: 2022
cur table: 2024
epoch: 1000
next table: 1861
cur table: 1864
epoch: 1000
next table: 2020
cur table: 2022
epoch: 1000
next table: 1851
cur table: 1861
epoch: 1000
next table: 1887
cur table: 1851
epoch: 1000
next table: 2020
cur table: 2020
epoch: 1000
next table: 1880
cur table: 1887
epoch: 1000
next table: 2023
cur table: 2020
epoch: 1000
next table: 1875
cur table: 1880
epoch: 1000
next table: 2023
cur table: 2023
epoch: 1000
next table: 1863
cur table: 1875
epoch: 1000
next table: 2022
cur table: 2023
epoch: 1000
next table: 1888
cur table: 1863
epoch: 1000
next table: 2020
cur table: 2022
epoch: 1000
next table: 1884
cur table: 1888
epoch: 1000
next table: 2023
cur table: 2020
epoch: 1000
next table: 1872
cur table: 1884
epoch: 1000
next table: 2024
cur table: 2023
epoch: 1000
next table: 1885
cur table: 1872
epoch: 1000
next table: 2023
cur table: 2024
epoch: 1000
next table: 1892
cur table: 1885
epoch: 1000
next table: 2025
cur table: 2023
epoch: 1000
next table: 1887
cur table: 1892
epoch: 1000
next table: 2018
cur table: 2025
epoch: 1000
next table: 1890
cur table: 1887
epoch: 1000
next table: 2027
cur table: 2018
epoch: 1000
next table: 1865
cur table: 1890
epoch: 1000
next table: 2023
cur table: 2027
epoch: 1000
next table: 1881
cur table: 1865
epoch: 1000
next table: 2027
cur table: 2023
epoch: 1000
next table: 1884
cur table: 1881
epoch: 1000
next table: 2021
cur table: 2027
epoch: 1000
next table: 1869
cur table: 1884
epoch: 1000
next table: 2026
cur table: 2021
epoch: 1000
next table: 1881
cur table: 1869
epoch: 1000
next table: 1872
cur table: 1881
epoch: 1000
next table: 2022
cur table: 2026
epoch: 1000
next table: 1891
cur table: 1872
epoch: 1000
next table: 2024
cur table: 2022
epoch: 1000
next table: 1891
cur table: 1891
epoch: 1000
next table: 2022
cur table: 2024
epoch: 1000
next table: 1869
cur table: 1891
epoch: 1000
next table: 2022
cur table: 2022
epoch: 1000
next table: 1871
cur table: 1869
epoch: 1000
next table: 2022
cur table: 2022
epoch: 1000
next table: 1866
cur table: 1871
epoch: 1000
next table: 2019
cur table: 2022
epoch: 1000
next table: 1875
cur table: 1866
epoch: 1000
next table: 2019
cur table: 2019
epoch: 1000
next table: 1873
cur table: 1875
epoch: 1000
next table: 2020
cur table: 2019
epoch: 1000
next table: 1877
cur table: 1873
epoch: 1000
next table: 2019
cur table: 2020
epoch: 1000
next table: 1869
cur table: 1877
epoch: 1000
next table: 2022
cur table: 2019
epoch: 1000
next table: 1802
cur table: 1869
epoch: 1000
next table: 2014
cur table: 2022
epoch: 1000
next table: 1823
cur table: 1802
epoch: 1000
next table: 2025
cur table: 2014
epoch: 1000
next table: 1815
cur table: 1823
epoch: 1000
next table: 2063
cur table: 2025
epoch: 1000
next table: 1728
cur table: 1815
epoch: 1000
next table: 1746
cur table: 1728
epoch: 1000
next table: 2063
cur table: 2063
epoch: 1000
next table: 1788
cur table: 1746
epoch: 1000
next table: 2060
cur table: 2063
epoch: 1000
next table: 1761
cur table: 1788
epoch: 1000
next table: 2082
cur table: 2060
epoch: 1000
next table: 1787
cur table: 1761
epoch: 1000
next table: 2058
cur table: 2082
epoch: 1000
next table: 1786
cur table: 1787
epoch: 1000
next table: 1796
cur table: 1786
epoch: 1000
next table: 2083
cur table: 2058
epoch: 1000
next table: 1806
cur table: 1796
epoch: 1000
next table: 2031
cur table: 2083
epoch: 1000
next table: 1820
cur table: 1806
epoch: 1000
next table: 2094
cur table: 2031
epoch: 1000
next table: 1801
cur table: 1820
epoch: 1000
next table: 2063
cur table: 2094
epoch: 1000
next table: 1808
cur table: 1801
epoch: 1000
next table: 2042
cur table: 2063
epoch: 1000
next table: 1771
cur table: 1808
epoch: 1000
next table: 1830
cur table: 1771
epoch: 1000
next table: 2135
cur table: 2042
epoch: 1000
next table: 1803
cur table: 1830
epoch: 1000
next table: 2061
cur table: 2135
epoch: 1000
next table: 1796
cur table: 1803
epoch: 1000
next table: 2099
cur table: 2061
epoch: 1000
next table: 1784
cur table: 1796
epoch: 1000
next table: 2105
cur table: 2099
epoch: 1000
next table: 1755
cur table: 1784
epoch: 1000
next table: 2063
cur table: 2105
epoch: 1000
next table: 1782
cur table: 1755
epoch: 1000
next table: 1794
cur table: 1782
epoch: 1000
next table: 2073
cur table: 2063
epoch: 1000
next table: 1796
cur table: 1794
epoch: 1000
next table: 2123
cur table: 2073
epoch: 1000
next table: 1771
cur table: 1796
epoch: 1000
next table: 2059
cur table: 2123
epoch: 1000
next table: 1780
cur table: 1771
epoch: 1000
next table: 2060
cur table: 2059
epoch: 1000
next table: 1755
cur table: 1780
epoch: 1000
next table: 1771
cur table: 1755
epoch: 1000
next table: 2040
cur table: 2060
epoch: 1000
next table: 1783
cur table: 1771
epoch: 1000
next table: 2027
cur table: 2040
epoch: 1000
next table: 1812
cur table: 1783
epoch: 1000
next table: 2084
cur table: 2027
epoch: 1000
next table: 1812
cur table: 1812
epoch: 1000
next table: 2025
cur table: 2084
epoch: 1000
next table: 1815
cur table: 1812
epoch: 1000
next table: 2061
cur table: 2025
epoch: 1000
next table: 1783
cur table: 1815
epoch: 1000
next table: 2042
cur table: 2061
epoch: 1000
next table: 1792
cur table: 1783
epoch: 1000
next table: 1798
cur table: 1792
epoch: 1000
next table: 2083
cur table: 2042
epoch: 1000
next table: 1798
cur table: 1798
epoch: 1000
next table: 2064
cur table: 2083
epoch: 1000
next table: 1858
cur table: 1798
epoch: 1000
next table: 2128
cur table: 2064
epoch: 1000
next table: 1801
cur table: 1858
epoch: 1000
next table: 2061
cur table: 2128
epoch: 1000
next table: 1788
cur table: 1801
epoch: 1000
next table: 2092
cur table: 2061
epoch: 1000
next table: 1802
cur table: 1788
epoch: 1000
next table: 2065
cur table: 2092
epoch: 1000
next table: 1818
cur table: 1802
epoch: 1000
next table: 1777
cur table: 1818
epoch: 1000
next table: 2111
cur table: 2065
epoch: 1000
next table: 1791
cur table: 1777
epoch: 1000
next table: 2059
cur table: 2111
epoch: 1000
next table: 1761
cur table: 1791
epoch: 1000
next table: 2080
cur table: 2059
epoch: 1000
next table: 1770
cur table: 1761
epoch: 1000
next table: 2056
cur table: 2080
epoch: 1000
next table: 1772
cur table: 1770
epoch: 1000
next table: 1752
cur table: 1772
epoch: 1000
next table: 2094
cur table: 2056
epoch: 1000
next table: 1765
cur table: 1752
epoch: 1000
next table: 2053
cur table: 2094
epoch: 1000
next table: 1744
cur table: 1765
epoch: 1000
next table: 2029
cur table: 2053
epoch: 1000
next table: 1807
cur table: 1744
epoch: 1000
next table: 2061
cur table: 2029
epoch: 1000
next table: 1801
cur table: 1807
epoch: 1000
next table: 2025
cur table: 2061
epoch: 1000
next table: 1793
cur table: 1801
epoch: 1000
next table: 2017
cur table: 2025
epoch: 1000
next table: 1801
cur table: 1793
epoch: 1000
next table: 2053
cur table: 2017
epoch: 1000
next table: 1771
cur table: 1801
epoch: 1000
next table: 2039
cur table: 2053
epoch: 1000
next table: 1812
cur table: 1771
epoch: 1000
next table: 1827
cur table: 1812
epoch: 1000
next table: 2104
cur table: 2039
epoch: 1000
next table: 1828
cur table: 1827
epoch: 1000
next table: 2020
cur table: 2104
epoch: 1000
next table: 1798
cur table: 1828
epoch: 1000
next table: 2039
cur table: 2020
epoch: 1000
next table: 1804
cur table: 1798
epoch: 1000
next table: 2046
cur table: 2039
epoch: 1000
next table: 1792
cur table: 1804
epoch: 1000
next table: 2032
cur table: 2046
epoch: 1000
next table: 1769
cur table: 1792
epoch: 1000
next table: 2020
cur table: 2032
epoch: 1000
next table: 1825
cur table: 1769
epoch: 1000
next table: 2079
cur table: 2020
epoch: 1000
next table: 1805
cur table: 1825
epoch: 1000
next table: 2037
cur table: 2079
epoch: 1000
next table: 1821
cur table: 1805
epoch: 1000
next table: 1792
cur table: 1821
epoch: 1000
next table: 2047
cur table: 2037
epoch: 1000
next table: 1750
cur table: 1792
epoch: 1000
next table: 2016
cur table: 2047
epoch: 1000
next table: 1807
cur table: 1750
epoch: 1000
next table: 2034
cur table: 2016
epoch: 1000
next table: 1833
cur table: 1807
epoch: 1000
next table: 2089
cur table: 2034
epoch: 1000
next table: 1784
cur table: 1833
epoch: 1000
next table: 2033
cur table: 2089
epoch: 1000
next table: 1814
cur table: 1784
epoch: 1000
next table: 2061
cur table: 2033
epoch: 1000
next table: 1775
cur table: 1814
epoch: 1000
next table: 2019
cur table: 2061
epoch: 1000
next table: 1786
cur table: 1775
epoch: 1000
next table: 2029
cur table: 2019
epoch: 1000
next table: 1814
cur table: 1786
epoch: 1000
next table: 1810
cur table: 1814
epoch: 1000
next table: 2072
cur table: 2029
epoch: 1000
next table: 1779
cur table: 1810
epoch: 1000
next table: 2034
cur table: 2072
epoch: 1000
next table: 1804
cur table: 1779
epoch: 1000
next table: 2039
cur table: 2034
epoch: 1000
next table: 1772
cur table: 1804
epoch: 1000
next table: 2025
cur table: 2039
epoch: 1000
next table: 1850
cur table: 1772
epoch: 1000
next table: 2121
cur table: 2025
epoch: 1000
next table: 1760
cur table: 1850
epoch: 1000
next table: 2066
cur table: 2121
epoch: 1000
next table: 1783
cur table: 1760
epoch: 1000
next table: 1795
cur table: 1783
epoch: 1000
next table: 2072
cur table: 2066
epoch: 1000
next table: 1765
cur table: 1795
epoch: 1000
next table: 2067
cur table: 2072
epoch: 1000
next table: 1772
cur table: 1765
epoch: 1000
next table: 2106
cur table: 2067
epoch: 1000
next table: 1777
cur table: 1772
Heartbeat CPU 0 instructions: 20000000 cycles: 6427639 heartbeat IPC: 3.09395 cumulative IPC: 3.11156 (Simulation time: 0 hr 5 min 51 sec) 
epoch: 1000
next table: 2063
cur table: 2106
epoch: 1000
next table: 1748
cur table: 1777
epoch: 1000
next table: 2049
cur table: 2063
epoch: 1000
next table: 1775
cur table: 1748
epoch: 1000
next table: 1757
cur table: 1775
epoch: 1000
next table: 2077
cur table: 2049
epoch: 1000
next table: 1782
cur table: 1757
epoch: 1000
next table: 2035
cur table: 2077
epoch: 1000
next table: 1779
cur table: 1782
epoch: 1000
next table: 2037
cur table: 2035
epoch: 1000
next table: 1801
cur table: 1779
epoch: 1000
next table: 2033
cur table: 2037
epoch: 1000
next table: 1810
cur table: 1801
epoch: 1000
next table: 2042
cur table: 2033
epoch: 1000
next table: 1770
cur table: 1810
epoch: 1000
next table: 2020
cur table: 2042
epoch: 1000
next table: 1756
cur table: 1770
epoch: 1000
next table: 2096
cur table: 2020
epoch: 1000
next table: 1794
cur table: 1756
epoch: 1000
next table: 1799
cur table: 1794
epoch: 1000
next table: 2020
cur table: 2096
epoch: 1000
next table: 1757
cur table: 1799
epoch: 1000
next table: 2028
cur table: 2020
epoch: 1000
next table: 1747
cur table: 1757
epoch: 1000
next table: 2031
cur table: 2028
epoch: 1000
next table: 1766
cur table: 1747
epoch: 1000
next table: 2068
cur table: 2031
epoch: 1000
next table: 1791
cur table: 1766
epoch: 1000
next table: 2028
cur table: 2068
epoch: 1000
next table: 1770
cur table: 1791
epoch: 1000
next table: 2014
cur table: 2028
epoch: 1000
next table: 1721
cur table: 1770
epoch: 1000
next table: 2059
cur table: 2014
epoch: 1000
next table: 1733
cur table: 1721
epoch: 1000
next table: 2024
cur table: 2059
epoch: 1000
next table: 1762
cur table: 1733
epoch: 1000
next table: 2019
cur table: 2024
epoch: 1000
next table: 1718
cur table: 1762
epoch: 1000
next table: 2074
cur table: 2019
epoch: 1000
next table: 1702
cur table: 1718
epoch: 1000
next table: 2036
cur table: 2074
epoch: 1000
next table: 1747
cur table: 1702
epoch: 1000
next table: 2020
cur table: 2036
epoch: 1000
next table: 1731
cur table: 1747
epoch: 1000
next table: 2056
cur table: 2020
epoch: 1000
next table: 1774
cur table: 1731
epoch: 1000
next table: 2015
cur table: 2056
epoch: 1000
next table: 1720
cur table: 1774
epoch: 1000
next table: 2026
cur table: 2015
epoch: 1000
next table: 1748
cur table: 1720
epoch: 1000
next table: 1763
cur table: 1748
epoch: 1000
next table: 2027
cur table: 2026
epoch: 1000
next table: 1782
cur table: 1763
epoch: 1000
next table: 2033
cur table: 2027
epoch: 1000
next table: 1806
cur table: 1782
epoch: 1000
next table: 2020
cur table: 2033
epoch: 1000
next table: 1834
cur table: 1806
epoch: 1000
next table: 2022
cur table: 2020
epoch: 1000
next table: 1847
cur table: 1834
epoch: 1000
next table: 2027
cur table: 2022
epoch: 1000
next table: 1872
cur table: 1847
epoch: 1000
next table: 2046
cur table: 2027
epoch: 1000
next table: 1841
cur table: 1872
epoch: 1000
next table: 2026
cur table: 2046
epoch: 1000
next table: 1841
cur table: 1841
epoch: 1000
next table: 2036
cur table: 2026
epoch: 1000
next table: 1833
cur table: 1841
epoch: 1000
next table: 2034
cur table: 2036
epoch: 1000
next table: 1847
cur table: 1833
epoch: 1000
next table: 2020
cur table: 2034
epoch: 1000
next table: 1858
cur table: 1847
epoch: 1000
next table: 2035
cur table: 2020
epoch: 1000
next table: 1857
cur table: 1858
epoch: 1000
next table: 2032
cur table: 2035
epoch: 1000
next table: 1849
cur table: 1857
epoch: 1000
next table: 1890
cur table: 1849
epoch: 1000
next table: 2026
cur table: 2032
epoch: 1000
next table: 1856
cur table: 1890
epoch: 1000
next table: 2066
cur table: 2026
epoch: 1000
next table: 1874
cur table: 1856
epoch: 1000
next table: 2049
cur table: 2066
epoch: 1000
next table: 1872
cur table: 1874
epoch: 1000
next table: 2054
cur table: 2049
epoch: 1000
next table: 1878
cur table: 1872
epoch: 1000
next table: 2052
cur table: 2054
epoch: 1000
next table: 1859
cur table: 1878
epoch: 1000
next table: 2035
cur table: 2052
epoch: 1000
next table: 1892
cur table: 1859
epoch: 1000
next table: 2068
cur table: 2035
epoch: 1000
next table: 1859
cur table: 1892
epoch: 1000
next table: 2026
cur table: 2068
epoch: 1000
next table: 1847
cur table: 1859
epoch: 1000
next table: 2070
cur table: 2026
epoch: 1000
next table: 1874
cur table: 1847
epoch: 1000
next table: 2026
cur table: 2070
epoch: 1000
next table: 1873
cur table: 1874
epoch: 1000
next table: 2054
cur table: 2026
epoch: 1000
next table: 1862
cur table: 1873
epoch: 1000
next table: 2055
cur table: 2054
epoch: 1000
next table: 1874
cur table: 1862
epoch: 1000
next table: 2050
cur table: 2055
epoch: 1000
next table: 1895
cur table: 1874
epoch: 1000
next table: 1853
cur table: 1895
epoch: 1000
next table: 2039
cur table: 2050
epoch: 1000
next table: 1877
cur table: 1853
epoch: 1000
next table: 2053
cur table: 2039
epoch: 1000
next table: 1876
cur table: 1877
epoch: 1000
next table: 2042
cur table: 2053
epoch: 1000
next table: 1852
cur table: 1876
epoch: 1000
next table: 2052
cur table: 2042
epoch: 1000
next table: 1866
cur table: 1852
epoch: 1000
next table: 2020
cur table: 2052
epoch: 1000
next table: 1862
cur table: 1866
epoch: 1000
next table: 2037
cur table: 2020
epoch: 1000
next table: 1876
cur table: 1862
epoch: 1000
next table: 2037
cur table: 2037
epoch: 1000
next table: 1894
cur table: 1876
epoch: 1000
next table: 2050
cur table: 2037
epoch: 1000
next table: 1852
cur table: 1894
epoch: 1000
next table: 2027
cur table: 2050
epoch: 1000
next table: 1880
cur table: 1852
epoch: 1000
next table: 2032
cur table: 2027
epoch: 1000
next table: 1884
cur table: 1880
epoch: 1000
next table: 2065
cur table: 2032
epoch: 1000
next table: 1878
cur table: 1884
epoch: 1000
next table: 2022
cur table: 2065
epoch: 1000
next table: 1870
cur table: 1878
epoch: 1000
next table: 2064
cur table: 2022
epoch: 1000
next table: 1879
cur table: 1870
epoch: 1000
next table: 2077
cur table: 2064
epoch: 1000
next table: 1878
cur table: 1879
epoch: 1000
next table: 1886
cur table: 1878
epoch: 1000
next table: 2069
cur table: 2077
epoch: 1000
next table: 1884
cur table: 1886
epoch: 1000
next table: 2072
cur table: 2069
epoch: 1000
next table: 1873
cur table: 1884
epoch: 1000
next table: 2044
cur table: 2072
epoch: 1000
next table: 1869
cur table: 1873
epoch: 1000
next table: 2068
cur table: 2044
epoch: 1000
next table: 1876
cur table: 1869
epoch: 1000
next table: 2052
cur table: 2068
epoch: 1000
next table: 1860
cur table: 1876
epoch: 1000
next table: 2047
cur table: 2052
epoch: 1000
next table: 1879
cur table: 1860
epoch: 1000
next table: 2059
cur table: 2047
epoch: 1000
next table: 1886
cur table: 1879
epoch: 1000
next table: 2052
cur table: 2059
epoch: 1000
next table: 1862
cur table: 1886
epoch: 1000
next table: 2086
cur table: 2052
epoch: 1000
next table: 1881
cur table: 1862
epoch: 1000
next table: 2049
cur table: 2086
epoch: 1000
next table: 1871
cur table: 1881
epoch: 1000
next table: 2022
cur table: 2049
epoch: 1000
next table: 1869
cur table: 1871
epoch: 1000
next table: 2020
cur table: 2022
epoch: 1000
next table: 1871
cur table: 1869
epoch: 1000
next table: 2022
cur table: 2020
epoch: 1000
next table: 1880
cur table: 1871
epoch: 1000
next table: 2021
cur table: 2022
epoch: 1000
next table: 1876
cur table: 1880
epoch: 1000
next table: 1868
cur table: 1876
epoch: 1000
next table: 2021
cur table: 2021
epoch: 1000
next table: 1864
cur table: 1868
epoch: 1000
next table: 2018
cur table: 2021
epoch: 1000
next table: 1847
cur table: 1864
epoch: 1000
next table: 2031
cur table: 2018
epoch: 1000
next table: 1763
cur table: 1847
epoch: 1000
next table: 2046
cur table: 2031
epoch: 1000
next table: 1774
cur table: 1763
epoch: 1000
next table: 2036
cur table: 2046
epoch: 1000
next table: 1779
cur table: 1774
epoch: 1000
next table: 2057
cur table: 2036
epoch: 1000
next table: 1818
cur table: 1779
epoch: 1000
next table: 2027
cur table: 2057
epoch: 1000
next table: 1778
cur table: 1818
epoch: 1000
next table: 2039
cur table: 2027
epoch: 1000
next table: 1763
cur table: 1778
epoch: 1000
next table: 2034
cur table: 2039
epoch: 1000
next table: 1765
cur table: 1763
epoch: 1000
next table: 2041
cur table: 2034
epoch: 1000
next table: 1788
cur table: 1765
epoch: 1000
next table: 2043
cur table: 2041
epoch: 1000
next table: 1786
cur table: 1788
epoch: 1000
next table: 2022
cur table: 2043
epoch: 1000
next table: 1765
cur table: 1786
epoch: 1000
next table: 2035
cur table: 2022
epoch: 1000
next table: 1752
cur table: 1765
epoch: 1000
next table: 2048
cur table: 2035
epoch: 1000
next table: 1749
cur table: 1752
epoch: 1000
next table: 2044
cur table: 2048
epoch: 1000
next table: 1765
cur table: 1749
epoch: 1000
next table: 2049
cur table: 2044
epoch: 1000
next table: 1750
cur table: 1765
epoch: 1000
next table: 2019
cur table: 2049
epoch: 1000
next table: 1778
cur table: 1750
epoch: 1000
next table: 2071
cur table: 2019
epoch: 1000
next table: 1773
cur table: 1778
epoch: 1000
next table: 2016
cur table: 2071
epoch: 1000
next table: 1772
cur table: 1773
epoch: 1000
next table: 1766
cur table: 1772
epoch: 1000
next table: 2076
cur table: 2016
epoch: 1000
next table: 1770
cur table: 1766
epoch: 1000
next table: 2016
cur table: 2076
epoch: 1000
next table: 1797
cur table: 1770
epoch: 1000
next table: 2077
cur table: 2016
epoch: 1000
next table: 1765
cur table: 1797
epoch: 1000
next table: 2060
cur table: 2077
epoch: 1000
next table: 1761
cur table: 1765
epoch: 1000
next table: 2047
cur table: 2060
epoch: 1000
next table: 1757
cur table: 1761
epoch: 1000
next table: 2041
cur table: 2047
epoch: 1000
next table: 1744
cur table: 1757
epoch: 1000
next table: 2079
cur table: 2041
epoch: 1000
next table: 1765
cur table: 1744
epoch: 1000
next table: 2016
cur table: 2079
epoch: 1000
next table: 1777
cur table: 1765
epoch: 1000
next table: 2035
cur table: 2016
epoch: 1000
next table: 1767
cur table: 1777
epoch: 1000
next table: 2021
cur table: 2035
epoch: 1000
next table: 1774
cur table: 1767
epoch: 1000
next table: 2055
cur table: 2021
epoch: 1000
next table: 1773
cur table: 1774
epoch: 1000
next table: 2053
cur table: 2055
epoch: 1000
next table: 1756
cur table: 1773
epoch: 1000
next table: 2052
cur table: 2053
epoch: 1000
next table: 1758
cur table: 1756
epoch: 1000
next table: 2048
cur table: 2052
epoch: 1000
next table: 1748
cur table: 1758
epoch: 1000
next table: 2012
cur table: 2048
epoch: 1000
next table: 1777
cur table: 1748
epoch: 1000
next table: 2022
cur table: 2012
epoch: 1000
next table: 1788
cur table: 1777
epoch: 1000
next table: 2039
cur table: 2022
epoch: 1000
next table: 1768
cur table: 1788
epoch: 1000
next table: 2016
cur table: 2039
epoch: 1000
next table: 1773
cur table: 1768
epoch: 1000
next table: 1781
cur table: 1773
epoch: 1000
next table: 2031
cur table: 2016
epoch: 1000
next table: 1776
cur table: 1781
epoch: 1000
next table: 2020
cur table: 2031
epoch: 1000
next table: 1784
cur table: 1776
epoch: 1000
next table: 2023
cur table: 2020
epoch: 1000
next table: 1814
cur table: 1784
epoch: 1000
next table: 2031
cur table: 2023
epoch: 1000
next table: 1834
cur table: 1814
epoch: 1000
next table: 2022
cur table: 2031
epoch: 1000
next table: 1821
cur table: 1834
epoch: 1000
next table: 2039
cur table: 2022
epoch: 1000
next table: 1852
cur table: 1821
epoch: 1000
next table: 2038
cur table: 2039
epoch: 1000
next table: 1877
cur table: 1852
epoch: 1000
next table: 2064
cur table: 2038
epoch: 1000
next table: 1882
cur table: 1877
epoch: 1000
next table: 2104
cur table: 2064
epoch: 1000
next table: 1873
cur table: 1882
epoch: 1000
next table: 2019
cur table: 2104
epoch: 1000
next table: 1884
cur table: 1873
epoch: 1000
next table: 2023
cur table: 2019
epoch: 1000
next table: 1846
cur table: 1884
epoch: 1000
next table: 2018
cur table: 2023
epoch: 1000
next table: 1863
cur table: 1846
epoch: 1000
next table: 2019
cur table: 2018
epoch: 1000
next table: 1862
cur table: 1863
epoch: 1000
next table: 2023
cur table: 2019
epoch: 1000
next table: 1880
cur table: 1862
epoch: 1000
next table: 2023
cur table: 2023
epoch: 1000
next table: 1892
cur table: 1880
epoch: 1000
next table: 1869
cur table: 1892
epoch: 1000
next table: 2019
cur table: 2023
epoch: 1000
next table: 1890
cur table: 1869
epoch: 1000
next table: 2019
cur table: 2019
epoch: 1000
next table: 1862
cur table: 1890
epoch: 1000
next table: 2025
cur table: 2019
epoch: 1000
next table: 1871
cur table: 1862
epoch: 1000
next table: 2024
cur table: 2025
epoch: 1000
next table: 1847
cur table: 1871
epoch: 1000
next table: 2020
cur table: 2024
epoch: 1000
next table: 1883
cur table: 1847
epoch: 1000
next table: 2025
cur table: 2020
epoch: 1000
next table: 1862
cur table: 1883
epoch: 1000
next table: 2021
cur table: 2025
epoch: 1000
next table: 1862
cur table: 1862
epoch: 1000
next table: 2022
cur table: 2021
epoch: 1000
next table: 1872
cur table: 1862
epoch: 1000
next table: 2019
cur table: 2022
epoch: 1000
next table: 1888
cur table: 1872
epoch: 1000
next table: 2023
cur table: 2019
epoch: 1000
next table: 1871
cur table: 1888
epoch: 1000
next table: 2023
cur table: 2023
epoch: 1000
next table: 1855
cur table: 1871
epoch: 1000
next table: 2022
cur table: 2023
epoch: 1000
next table: 1880
cur table: 1855
epoch: 1000
next table: 2022
cur table: 2022
epoch: 1000
next table: 1884
cur table: 1880
epoch: 1000
next table: 2021
cur table: 2022
epoch: 1000
next table: 1871
cur table: 1884
epoch: 1000
next table: 1857
cur table: 1871
epoch: 1000
next table: 2021
cur table: 2021
epoch: 1000
next table: 1871
cur table: 1857
epoch: 1000
next table: 2025
cur table: 2021
epoch: 1000
next table: 1883
cur table: 1871
epoch: 1000
next table: 2021
cur table: 2025
epoch: 1000
next table: 1879
cur table: 1883
epoch: 1000
next table: 2021
cur table: 2021
epoch: 1000
next table: 1872
cur table: 1879
epoch: 1000
next table: 2020
cur table: 2021
epoch: 1000
next table: 1881
cur table: 1872
epoch: 1000
next table: 2021
cur table: 2020
epoch: 1000
next table: 1879
cur table: 1881
epoch: 1000
next table: 2022
cur table: 2021
epoch: 1000
next table: 1855
cur table: 1879
epoch: 1000
next table: 2022
cur table: 2022
epoch: 1000
next table: 1879
cur table: 1855
epoch: 1000
next table: 2020
cur table: 2022
epoch: 1000
next table: 1878
cur table: 1879
epoch: 1000
next table: 2020
cur table: 2020
epoch: 1000
next table: 1872
cur table: 1878
epoch: 1000
next table: 2029
cur table: 2020
epoch: 1000
next table: 1875
cur table: 1872
epoch: 1000
next table: 2021
cur table: 2029
epoch: 1000
next table: 1880
cur table: 1875
epoch: 1000
next table: 2023
cur table: 2021
epoch: 1000
next table: 1871
cur table: 1880
epoch: 1000
next table: 1871
cur table: 1871
epoch: 1000
next table: 2025
cur table: 2023
epoch: 1000
next table: 1867
cur table: 1871
epoch: 1000
next table: 2025
cur table: 2025
epoch: 1000
next table: 1860
cur table: 1867
epoch: 1000
next table: 2022
cur table: 2025
epoch: 1000
next table: 1876
cur table: 1860
epoch: 1000
next table: 2020
cur table: 2022
epoch: 1000
next table: 1876
cur table: 1876
epoch: 1000
next table: 2025
cur table: 2020
epoch: 1000
next table: 1870
cur table: 1876
epoch: 1000
next table: 2026
cur table: 2025
epoch: 1000
next table: 1887
cur table: 1870
epoch: 1000
next table: 2022
cur table: 2026
epoch: 1000
next table: 1905
cur table: 1887
epoch: 1000
next table: 2021
cur table: 2022
epoch: 1000
next table: 1866
cur table: 1905
epoch: 1000
next table: 2022
cur table: 2021
epoch: 1000
next table: 1882
cur table: 1866
epoch: 1000
next table: 2024
cur table: 2022
epoch: 1000
next table: 1868
cur table: 1882
epoch: 1000
next table: 2021
cur table: 2024
epoch: 1000
next table: 1899
cur table: 1868
epoch: 1000
next table: 2023
cur table: 2021
epoch: 1000
next table: 1877
cur table: 1899
epoch: 1000
next table: 2021
cur table: 2023
epoch: 1000
next table: 1889
cur table: 1877
epoch: 1000
next table: 2019
cur table: 2021
epoch: 1000
next table: 1877
cur table: 1889
epoch: 1000
next table: 1867
cur table: 1877
epoch: 1000
next table: 2019
cur table: 2019
epoch: 1000
next table: 1861
cur table: 1867
epoch: 1000
next table: 2019
cur table: 2019
epoch: 1000
next table: 1859
cur table: 1861
epoch: 1000
next table: 2024
cur table: 2019
epoch: 1000
next table: 1786
cur table: 1859
epoch: 1000
next table: 2015
cur table: 2024
epoch: 1000
next table: 1777
cur table: 1786
epoch: 1000
next table: 2020
cur table: 2015
epoch: 1000
next table: 1679
cur table: 1777
epoch: 1000
next table: 2012
cur table: 2020
epoch: 1000
next table: 1667
cur table: 1679
epoch: 1000
next table: 2025
cur table: 2012
epoch: 1000
next table: 1698
cur table: 1667
epoch: 1000
next table: 2016
cur table: 2025
epoch: 1000
next table: 1708
cur table: 1698
epoch: 1000
next table: 2015
cur table: 2016
epoch: 1000
next table: 1684
cur table: 1708
epoch: 1000
next table: 2015
cur table: 2015
epoch: 1000
next table: 1683
cur table: 1684
epoch: 1000
next table: 2016
cur table: 2015
epoch: 1000
next table: 1701
cur table: 1683
epoch: 1000
next table: 2019
cur table: 2016
epoch: 1000
next table: 1661
cur table: 1701
epoch: 1000
next table: 1671
cur table: 1661
epoch: 1000
next table: 2015
cur table: 2019
epoch: 1000
next table: 1624
cur table: 1671
epoch: 1000
next table: 2021
cur table: 2015
epoch: 1000
next table: 1600
cur table: 1624
epoch: 1000
next table: 2013
cur table: 2021
epoch: 1000
next table: 1662
cur table: 1600
epoch: 1000
next table: 2028
cur table: 2013
epoch: 1000
next table: 1604
cur table: 1662
epoch: 1000
next table: 2019
cur table: 2028
epoch: 1000
next table: 1645
cur table: 1604
epoch: 1000
next table: 2018
cur table: 2019
epoch: 1000
next table: 1636
cur table: 1645
epoch: 1000
next table: 2028
cur table: 2018
epoch: 1000
next table: 1647
cur table: 1636
epoch: 1000
next table: 2018
cur table: 2028
epoch: 1000
next table: 1600
cur table: 1647
epoch: 1000
next table: 2013
cur table: 2018
epoch: 1000
next table: 1615
cur table: 1600
epoch: 1000
next table: 2028
cur table: 2013
epoch: 1000
next table: 1671
cur table: 1615
epoch: 1000
next table: 2021
cur table: 2028
epoch: 1000
next table: 1646
cur table: 1671
epoch: 1000
next table: 2021
cur table: 2021
epoch: 1000
next table: 1645
cur table: 1646
epoch: 1000
next table: 1645
cur table: 1645
epoch: 1000
next table: 2030
cur table: 2021
epoch: 1000
next table: 1680
cur table: 1645
epoch: 1000
next table: 2018
cur table: 2030
epoch: 1000
next table: 1663
cur table: 1680
epoch: 1000
next table: 2035
cur table: 2018
epoch: 1000
next table: 1682
cur table: 1663
epoch: 1000
next table: 2018
cur table: 2035
epoch: 1000
next table: 1662
cur table: 1682
epoch: 1000
next table: 2017
cur table: 2018
epoch: 1000
next table: 1688
cur table: 1662
epoch: 1000
next table: 2027
cur table: 2017
epoch: 1000
next table: 1689
cur table: 1688
epoch: 1000
next table: 2029
cur table: 2027
epoch: 1000
next table: 1692
cur table: 1689
epoch: 1000
next table: 2034
cur table: 2029
epoch: 1000
next table: 1697
cur table: 1692
epoch: 1000
next table: 2025
cur table: 2034
epoch: 1000
next table: 1661
cur table: 1697
epoch: 1000
next table: 2028
cur table: 2025
epoch: 1000
next table: 1653
cur table: 1661
epoch: 1000
next table: 1676
cur table: 1653
epoch: 1000
next table: 2050
cur table: 2028
epoch: 1000
next table: 1651
cur table: 1676
epoch: 1000
next table: 2017
cur table: 2050
epoch: 1000
next table: 1640
cur table: 1651
epoch: 1000
next table: 2025
cur table: 2017
epoch: 1000
next table: 1652
cur table: 1640
epoch: 1000
next table: 2027
cur table: 2025
epoch: 1000
next table: 1703
cur table: 1652
epoch: 1000
next table: 2023
cur table: 2027
epoch: 1000
next table: 1669
cur table: 1703
epoch: 1000
next table: 2040
cur table: 2023
epoch: 1000
next table: 1693
cur table: 1669
epoch: 1000
next table: 2019
cur table: 2040
epoch: 1000
next table: 1664
cur table: 1693
epoch: 1000
next table: 2033
cur table: 2019
epoch: 1000
next table: 1704
cur table: 1664
epoch: 1000
next table: 2036
cur table: 2033
epoch: 1000
next table: 1637
cur table: 1704
epoch: 1000
next table: 2019
cur table: 2036
epoch: 1000
next table: 1666
cur table: 1637
epoch: 1000
next table: 1680
cur table: 1666
epoch: 1000
next table: 2018
cur table: 2019
epoch: 1000
next table: 1654
cur table: 1680
epoch: 1000
next table: 2012
cur table: 2018
epoch: 1000
next table: 1613
cur table: 1654
epoch: 1000
next table: 2020
cur table: 2012
epoch: 1000
next table: 1641
cur table: 1613
epoch: 1000
next table: 2018
cur table: 2020
epoch: 1000
next table: 1671
cur table: 1641
epoch: 1000
next table: 2024
cur table: 2018
epoch: 1000
next table: 1677
cur table: 1671
epoch: 1000
next table: 2023
cur table: 2024
epoch: 1000
next table: 1684
cur table: 1677
epoch: 1000
next table: 2042
cur table: 2023
epoch: 1000
next table: 1698
cur table: 1684
epoch: 1000
next table: 2028
cur table: 2042
epoch: 1000
next table: 1698
cur table: 1698
epoch: 1000
next table: 2022
cur table: 2028
epoch: 1000
next table: 1729
cur table: 1698
epoch: 1000
next table: 2033
cur table: 2022
epoch: 1000
next table: 1726
cur table: 1729
epoch: 1000
next table: 2015
cur table: 2033
epoch: 1000
next table: 1724
cur table: 1726
epoch: 1000
next table: 1772
cur table: 1724
epoch: 1000
next table: 2023
cur table: 2015
epoch: 1000
next table: 1771
cur table: 1772
epoch: 1000
next table: 2026
cur table: 2023
epoch: 1000
next table: 1816
cur table: 1771
epoch: 1000
next table: 2015
cur table: 2026
epoch: 1000
next table: 1823
cur table: 1816
epoch: 1000
next table: 2031
cur table: 2015
epoch: 1000
next table: 1842
cur table: 1823
epoch: 1000
next table: 2020
cur table: 2031
epoch: 1000
next table: 1837
cur table: 1842
epoch: 1000
next table: 2026
cur table: 2020
epoch: 1000
next table: 1856
cur table: 1837
epoch: 1000
next table: 2033
cur table: 2026
epoch: 1000
next table: 1880
cur table: 1856
epoch: 1000
next table: 2039
cur table: 2033
epoch: 1000
next table: 1857
cur table: 1880
epoch: 1000
next table: 2025
cur table: 2039
epoch: 1000
next table: 1850
cur table: 1857
epoch: 1000
next table: 2051
cur table: 2025
epoch: 1000
next table: 1861
cur table: 1850
epoch: 1000
next table: 2022
cur table: 2051
epoch: 1000
next table: 1865
cur table: 1861
epoch: 1000
next table: 2022
cur table: 2022
epoch: 1000
next table: 1857
cur table: 1865
epoch: 1000
next table: 2019
cur table: 2022
epoch: 1000
next table: 1863
cur table: 1857
epoch: 1000
next table: 1845
cur table: 1863
epoch: 1000
next table: 2036
cur table: 2019
epoch: 1000
next table: 1854
cur table: 1845
epoch: 1000
next table: 2038
cur table: 2036
epoch: 1000
next table: 1867
cur table: 1854
epoch: 1000
next table: 2049
cur table: 2038
epoch: 1000
next table: 1856
cur table: 1867
epoch: 1000
next table: 2078
cur table: 2049
epoch: 1000
next table: 1861
cur table: 1856
epoch: 1000
next table: 2051
cur table: 2078
epoch: 1000
next table: 1868
cur table: 1861
epoch: 1000
next table: 2044
cur table: 2051
epoch: 1000
next table: 1881
cur table: 1868
epoch: 1000
next table: 2058
cur table: 2044
epoch: 1000
next table: 1857
cur table: 1881
epoch: 1000
next table: 2045
cur table: 2058
epoch: 1000
next table: 1845
cur table: 1857
epoch: 1000
next table: 2048
cur table: 2045
epoch: 1000
next table: 1884
cur table: 1845
epoch: 1000
next table: 2048
cur table: 2048
epoch: 1000
next table: 1859
cur table: 1884
epoch: 1000
next table: 2022
cur table: 2048
epoch: 1000
next table: 1875
cur table: 1859
epoch: 1000
next table: 2080
cur table: 2022
epoch: 1000
next table: 1856
cur table: 1875
epoch: 1000
next table: 2020
cur table: 2080
epoch: 1000
next table: 1871
cur table: 1856
epoch: 1000
next table: 1846
cur table: 1871
epoch: 1000
next table: 2062
cur table: 2020
epoch: 1000
next table: 1882
cur table: 1846
epoch: 1000
next table: 2020
cur table: 2062
epoch: 1000
next table: 1872
cur table: 1882
epoch: 1000
next table: 2041
cur table: 2020
epoch: 1000
next table: 1837
cur table: 1872
epoch: 1000
next table: 2052
cur table: 2041
epoch: 1000
next table: 1863
cur table: 1837
epoch: 1000
next table: 2049
cur table: 2052
epoch: 1000
next table: 1892
cur table: 1863
epoch: 1000
next table: 2053
cur table: 2049
epoch: 1000
next table: 1859
cur table: 1892
epoch: 1000
next table: 2022
cur table: 2053
epoch: 1000
next table: 1871
cur table: 1859
epoch: 1000
next table: 2042
cur table: 2022
epoch: 1000
next table: 1872
cur table: 1871
epoch: 1000
next table: 2046
cur table: 2042
epoch: 1000
next table: 1884
cur table: 1872
epoch: 1000
next table: 2024
cur table: 2046
epoch: 1000
next table: 1875
cur table: 1884
epoch: 1000
next table: 2029
cur table: 2024
epoch: 1000
next table: 1846
cur table: 1875
epoch: 1000
next table: 2046
cur table: 2029
epoch: 1000
next table: 1859
cur table: 1846
epoch: 1000
next table: 2049
cur table: 2046
epoch: 1000
next table: 1876
cur table: 1859
epoch: 1000
next table: 2056
cur table: 2049
epoch: 1000
next table: 1888
cur table: 1876
epoch: 1000
next table: 1867
cur table: 1888
epoch: 1000
next table: 2040
cur table: 2056
epoch: 1000
next table: 1864
cur table: 1867
epoch: 1000
next table: 2057
cur table: 2040
epoch: 1000
next table: 1876
cur table: 1864
epoch: 1000
next table: 2067
cur table: 2057
epoch: 1000
next table: 1868
cur table: 1876
epoch: 1000
next table: 2045
cur table: 2067
epoch: 1000
next table: 1863
cur table: 1868
epoch: 1000
next table: 2063
cur table: 2045
epoch: 1000
next table: 1874
cur table: 1863
epoch: 1000
next table: 2057
cur table: 2063
epoch: 1000
next table: 1883
cur table: 1874
epoch: 1000
next table: 2051
cur table: 2057
epoch: 1000
next table: 1877
cur table: 1883
epoch: 1000
next table: 2056
cur table: 2051
epoch: 1000
next table: 1890
cur table: 1877
epoch: 1000
next table: 2096
cur table: 2056
epoch: 1000
next table: 1880
cur table: 1890
epoch: 1000
next table: 2049
cur table: 2096
epoch: 1000
next table: 1877
cur table: 1880
epoch: 1000
next table: 2041
cur table: 2049
epoch: 1000
next table: 1891
cur table: 1877
epoch: 1000
next table: 2021
cur table: 2041
epoch: 1000
next table: 1886
cur table: 1891
epoch: 1000
next table: 2019
cur table: 2021
epoch: 1000
next table: 1879
cur table: 1886
epoch: 1000
next table: 2022
cur table: 2019
epoch: 1000
next table: 1862
cur table: 1879
epoch: 1000
next table: 2020
cur table: 2022
epoch: 1000
next table: 1877
cur table: 1862
epoch: 1000
next table: 1889
cur table: 1877
epoch: 1000
next table: 2021
cur table: 2020
epoch: 1000
next table: 1878
cur table: 1889
epoch: 1000
next table: 2041
cur table: 2021
epoch: 1000
next table: 1846
cur table: 1878
epoch: 1000
next table: 2012
cur table: 2041
epoch: 1000
next table: 1841
cur table: 1846
epoch: 1000
next table: 2020
cur table: 2012
epoch: 1000
next table: 1767
cur table: 1841
epoch: 1000
next table: 2037
cur table: 2020
Heartbeat CPU 0 instructions: 30000001 cycles: 9617514 heartbeat IPC: 3.13492 cumulative IPC: 3.11931 (Simulation time: 0 hr 8 min 50 sec) 
epoch: 1000
next table: 1735
cur table: 1767
epoch: 1000
next table: 2015
cur table: 2037
epoch: 1000
next table: 1775
cur table: 1735
epoch: 1000
next table: 2020
cur table: 2015
epoch: 1000
next table: 1778
cur table: 1775
epoch: 1000
next table: 2075
cur table: 2020
epoch: 1000
next table: 1788
cur table: 1778
epoch: 1000
next table: 2030
cur table: 2075
epoch: 1000
next table: 1736
cur table: 1788
epoch: 1000
next table: 2040
cur table: 2030
epoch: 1000
next table: 1744
cur table: 1736
epoch: 1000
next table: 2023
cur table: 2040
epoch: 1000
next table: 1704
cur table: 1744
epoch: 1000
next table: 2046
cur table: 2023
epoch: 1000
next table: 1762
cur table: 1704
epoch: 1000
next table: 2031
cur table: 2046
epoch: 1000
next table: 1776
cur table: 1762
epoch: 1000
next table: 2064
cur table: 2031
epoch: 1000
next table: 1782
cur table: 1776
epoch: 1000
next table: 1772
cur table: 1782
epoch: 1000
next table: 2023
cur table: 2064
epoch: 1000
next table: 1745
cur table: 1772
epoch: 1000
next table: 2044
cur table: 2023
epoch: 1000
next table: 1772
cur table: 1745
epoch: 1000
next table: 2041
cur table: 2044
epoch: 1000
next table: 1769
cur table: 1772
epoch: 1000
next table: 2080
cur table: 2041
epoch: 1000
next table: 1779
cur table: 1769
epoch: 1000
next table: 2044
cur table: 2080
epoch: 1000
next table: 1799
cur table: 1779
epoch: 1000
next table: 2019
cur table: 2044
epoch: 1000
next table: 1795
cur table: 1799
epoch: 1000
next table: 1763
cur table: 1795
epoch: 1000
next table: 2085
cur table: 2019
epoch: 1000
next table: 1812
cur table: 1763
epoch: 1000
next table: 2075
cur table: 2085
epoch: 1000
next table: 1741
cur table: 1812
epoch: 1000
next table: 2040
cur table: 2075
epoch: 1000
next table: 1770
cur table: 1741
epoch: 1000
next table: 2063
cur table: 2040
epoch: 1000
next table: 1770
cur table: 1770
epoch: 1000
next table: 2041
cur table: 2063
epoch: 1000
next table: 1757
cur table: 1770
epoch: 1000
next table: 2029
cur table: 2041
epoch: 1000
next table: 1773
cur table: 1757
epoch: 1000
next table: 1790
cur table: 1773
epoch: 1000
next table: 2061
cur table: 2029
epoch: 1000
next table: 1771
cur table: 1790
epoch: 1000
next table: 2027
cur table: 2061
epoch: 1000
next table: 1805
cur table: 1771
epoch: 1000
next table: 2049
cur table: 2027
epoch: 1000
next table: 1775
cur table: 1805
epoch: 1000
next table: 2045
cur table: 2049
epoch: 1000
next table: 1813
cur table: 1775
epoch: 1000
next table: 2038
cur table: 2045
epoch: 1000
next table: 1768
cur table: 1813
epoch: 1000
next table: 2044
cur table: 2038
epoch: 1000
next table: 1791
cur table: 1768
epoch: 1000
next table: 1788
cur table: 1791
epoch: 1000
next table: 2090
cur table: 2044
epoch: 1000
next table: 1779
cur table: 1788
epoch: 1000
next table: 2078
cur table: 2090
epoch: 1000
next table: 1797
cur table: 1779
epoch: 1000
next table: 2037
cur table: 2078
epoch: 1000
next table: 1801
cur table: 1797
epoch: 1000
next table: 2045
cur table: 2037
epoch: 1000
next table: 1829
cur table: 1801
epoch: 1000
next table: 2016
cur table: 2045
epoch: 1000
next table: 1795
cur table: 1829
epoch: 1000
next table: 2066
cur table: 2016
epoch: 1000
next table: 1804
cur table: 1795
epoch: 1000
next table: 2027
cur table: 2066
epoch: 1000
next table: 1794
cur table: 1804
epoch: 1000
next table: 2038
cur table: 2027
epoch: 1000
next table: 1802
cur table: 1794
epoch: 1000
next table: 1799
cur table: 1802
epoch: 1000
next table: 2063
cur table: 2038
epoch: 1000
next table: 1754
cur table: 1799
epoch: 1000
next table: 2014
cur table: 2063
epoch: 1000
next table: 1757
cur table: 1754
epoch: 1000
next table: 2043
cur table: 2014
epoch: 1000
next table: 1786
cur table: 1757
epoch: 1000
next table: 2016
cur table: 2043
epoch: 1000
next table: 1821
cur table: 1786
epoch: 1000
next table: 2079
cur table: 2016
epoch: 1000
next table: 1839
cur table: 1821
epoch: 1000
next table: 2044
cur table: 2079
epoch: 1000
next table: 1770
cur table: 1839
epoch: 1000
next table: 2020
cur table: 2044
epoch: 1000
next table: 1791
cur table: 1770
epoch: 1000
next table: 2045
cur table: 2020
epoch: 1000
next table: 1781
cur table: 1791
epoch: 1000
next table: 2017
cur table: 2045
epoch: 1000
next table: 1805
cur table: 1781
epoch: 1000
next table: 1781
cur table: 1805
epoch: 1000
next table: 2030
cur table: 2017
epoch: 1000
next table: 1857
cur table: 1781
epoch: 1000
next table: 2095
cur table: 2030
epoch: 1000
next table: 1763
cur table: 1857
epoch: 1000
next table: 2011
cur table: 2095
epoch: 1000
next table: 1804
cur table: 1763
epoch: 1000
next table: 2043
cur table: 2011
epoch: 1000
next table: 1823
cur table: 1804
epoch: 1000
next table: 2052
cur table: 2043
epoch: 1000
next table: 1839
cur table: 1823
epoch: 1000
next table: 2019
cur table: 2052
epoch: 1000
next table: 1771
cur table: 1839
epoch: 1000
next table: 2084
cur table: 2019
epoch: 1000
next table: 1787
cur table: 1771
epoch: 1000
next table: 2021
cur table: 2084
epoch: 1000
next table: 1762
cur table: 1787
epoch: 1000
next table: 2049
cur table: 2021
epoch: 1000
next table: 1770
cur table: 1762
epoch: 1000
next table: 1778
cur table: 1770
epoch: 1000
next table: 2091
cur table: 2049
epoch: 1000
next table: 1810
cur table: 1778
epoch: 1000
next table: 2038
cur table: 2091
epoch: 1000
next table: 1773
cur table: 1810
epoch: 1000
next table: 2025
cur table: 2038
epoch: 1000
next table: 1794
cur table: 1773
epoch: 1000
next table: 2063
cur table: 2025
epoch: 1000
next table: 1783
cur table: 1794
epoch: 1000
next table: 2012
cur table: 2063
epoch: 1000
next table: 1809
cur table: 1783
epoch: 1000
next table: 2020
cur table: 2012
epoch: 1000
next table: 1784
cur table: 1809
epoch: 1000
next table: 2036
cur table: 2020
epoch: 1000
next table: 1814
cur table: 1784
epoch: 1000
next table: 1848
cur table: 1814
epoch: 1000
next table: 2100
cur table: 2036
epoch: 1000
next table: 1763
cur table: 1848
epoch: 1000
next table: 2040
cur table: 2100
epoch: 1000
next table: 1765
cur table: 1763
epoch: 1000
next table: 2029
cur table: 2040
epoch: 1000
next table: 1774
cur table: 1765
epoch: 1000
next table: 2062
cur table: 2029
epoch: 1000
next table: 1808
cur table: 1774
epoch: 1000
next table: 2051
cur table: 2062
epoch: 1000
next table: 1812
cur table: 1808
epoch: 1000
next table: 2085
cur table: 2051
epoch: 1000
next table: 1823
cur table: 1812
epoch: 1000
next table: 1795
cur table: 1823
epoch: 1000
next table: 2031
cur table: 2085
epoch: 1000
next table: 1778
cur table: 1795
epoch: 1000
next table: 2053
cur table: 2031
epoch: 1000
next table: 1791
cur table: 1778
epoch: 1000
next table: 2035
cur table: 2053
epoch: 1000
next table: 1786
cur table: 1791
epoch: 1000
next table: 2095
cur table: 2035
epoch: 1000
next table: 1764
cur table: 1786
epoch: 1000
next table: 2020
cur table: 2095
epoch: 1000
next table: 1782
cur table: 1764
epoch: 1000
next table: 2041
cur table: 2020
epoch: 1000
next table: 1792
cur table: 1782
epoch: 1000
next table: 2019
cur table: 2041
epoch: 1000
next table: 1752
cur table: 1792
epoch: 1000
next table: 1766
cur table: 1752
epoch: 1000
next table: 2068
cur table: 2019
epoch: 1000
next table: 1763
cur table: 1766
epoch: 1000
next table: 2058
cur table: 2068
epoch: 1000
next table: 1777
cur table: 1763
epoch: 1000
next table: 2039
cur table: 2058
epoch: 1000
next table: 1788
cur table: 1777
epoch: 1000
next table: 2024
cur table: 2039
epoch: 1000
next table: 1791
cur table: 1788
epoch: 1000
next table: 2060
cur table: 2024
epoch: 1000
next table: 1811
cur table: 1791
epoch: 1000
next table: 2034
cur table: 2060
epoch: 1000
next table: 1769
cur table: 1811
epoch: 1000
next table: 2047
cur table: 2034
epoch: 1000
next table: 1786
cur table: 1769
epoch: 1000
next table: 1766
cur table: 1786
epoch: 1000
next table: 2023
cur table: 2047
epoch: 1000
next table: 1796
cur table: 1766
epoch: 1000
next table: 2087
cur table: 2023
epoch: 1000
next table: 1731
cur table: 1796
epoch: 1000
next table: 2026
cur table: 2087
epoch: 1000
next table: 1742
cur table: 1731
epoch: 1000
next table: 2024
cur table: 2026
epoch: 1000
next table: 1787
cur table: 1742
epoch: 1000
next table: 2025
cur table: 2024
epoch: 1000
next table: 1799
cur table: 1787
epoch: 1000
next table: 2072
cur table: 2025
epoch: 1000
next table: 1809
cur table: 1799
epoch: 1000
next table: 2024
cur table: 2072
epoch: 1000
next table: 1863
cur table: 1809
epoch: 1000
next table: 2024
cur table: 2024
epoch: 1000
next table: 1838
cur table: 1863
epoch: 1000
next table: 1837
cur table: 1838
epoch: 1000
next table: 2025
cur table: 2024
epoch: 1000
next table: 1855
cur table: 1837
epoch: 1000
next table: 2055
cur table: 2025
epoch: 1000
next table: 1838
cur table: 1855
epoch: 1000
next table: 2033
cur table: 2055
epoch: 1000
next table: 1840
cur table: 1838
epoch: 1000
next table: 2028
cur table: 2033
epoch: 1000
next table: 1867
cur table: 1840
epoch: 1000
next table: 2030
cur table: 2028
epoch: 1000
next table: 1853
cur table: 1867
epoch: 1000
next table: 2049
cur table: 2030
epoch: 1000
next table: 1855
cur table: 1853
epoch: 1000
next table: 2027
cur table: 2049
epoch: 1000
next table: 1866
cur table: 1855
epoch: 1000
next table: 2044
cur table: 2027
epoch: 1000
next table: 1835
cur table: 1866
epoch: 1000
next table: 2053
cur table: 2044
epoch: 1000
next table: 1844
cur table: 1835
epoch: 1000
next table: 2025
cur table: 2053
epoch: 1000
next table: 1868
cur table: 1844
epoch: 1000
next table: 2056
cur table: 2025
epoch: 1000
next table: 1863
cur table: 1868
epoch: 1000
next table: 1873
cur table: 1863
epoch: 1000
next table: 2045
cur table: 2056
epoch: 1000
next table: 1871
cur table: 1873
epoch: 1000
next table: 2067
cur table: 2045
epoch: 1000
next table: 1854
cur table: 1871
epoch: 1000
next table: 2040
cur table: 2067
epoch: 1000
next table: 1870
cur table: 1854
epoch: 1000
next table: 2043
cur table: 2040
epoch: 1000
next table: 1872
cur table: 1870
epoch: 1000
next table: 2055
cur table: 2043
epoch: 1000
next table: 1881
cur table: 1872
epoch: 1000
next table: 2048
cur table: 2055
epoch: 1000
next table: 1875
cur table: 1881
epoch: 1000
next table: 2045
cur table: 2048
epoch: 1000
next table: 1863
cur table: 1875
epoch: 1000
next table: 2032
cur table: 2045
epoch: 1000
next table: 1882
cur table: 1863
epoch: 1000
next table: 2068
cur table: 2032
epoch: 1000
next table: 1856
cur table: 1882
epoch: 1000
next table: 2019
cur table: 2068
epoch: 1000
next table: 1866
cur table: 1856
epoch: 1000
next table: 2040
cur table: 2019
epoch: 1000
next table: 1868
cur table: 1866
epoch: 1000
next table: 2059
cur table: 2040
epoch: 1000
next table: 1853
cur table: 1868
epoch: 1000
next table: 2059
cur table: 2059
epoch: 1000
next table: 1876
cur table: 1853
epoch: 1000
next table: 2023
cur table: 2059
epoch: 1000
next table: 1860
cur table: 1876
epoch: 1000
next table: 2031
cur table: 2023
epoch: 1000
next table: 1870
cur table: 1860
epoch: 1000
next table: 1844
cur table: 1870
epoch: 1000
next table: 2043
cur table: 2031
epoch: 1000
next table: 1864
cur table: 1844
epoch: 1000
next table: 2055
cur table: 2043
epoch: 1000
next table: 1854
cur table: 1864
epoch: 1000
next table: 2020
cur table: 2055
epoch: 1000
next table: 1856
cur table: 1854
epoch: 1000
next table: 2038
cur table: 2020
epoch: 1000
next table: 1856
cur table: 1856
epoch: 1000
next table: 2064
cur table: 2038
epoch: 1000
next table: 1870
cur table: 1856
epoch: 1000
next table: 2042
cur table: 2064
epoch: 1000
next table: 1899
cur table: 1870
epoch: 1000
next table: 2038
cur table: 2042
epoch: 1000
next table: 1874
cur table: 1899
epoch: 1000
next table: 2059
cur table: 2038
epoch: 1000
next table: 1860
cur table: 1874
epoch: 1000
next table: 2060
cur table: 2059
epoch: 1000
next table: 1854
cur table: 1860
epoch: 1000
next table: 2061
cur table: 2060
epoch: 1000
next table: 1874
cur table: 1854
epoch: 1000
next table: 2049
cur table: 2061
epoch: 1000
next table: 1858
cur table: 1874
epoch: 1000
next table: 2051
cur table: 2049
epoch: 1000
next table: 1866
cur table: 1858
epoch: 1000
next table: 1877
cur table: 1866
epoch: 1000
next table: 2058
cur table: 2051
epoch: 1000
next table: 1853
cur table: 1877
epoch: 1000
next table: 2048
cur table: 2058
epoch: 1000
next table: 1861
cur table: 1853
epoch: 1000
next table: 2064
cur table: 2048
epoch: 1000
next table: 1868
cur table: 1861
epoch: 1000
next table: 2052
cur table: 2064
epoch: 1000
next table: 1863
cur table: 1868
epoch: 1000
next table: 2052
cur table: 2052
epoch: 1000
next table: 1875
[...]
cur table: 1705
epoch: 1000
next table: 2042
cur table: 2025
epoch: 1000
next table: 1749
cur table: 1785
epoch: 1000
next table: 2013
cur table: 2042
epoch: 1000
next table: 1689
cur table: 1749
epoch: 1000
next table: 2020
cur table: 2013
epoch: 1000
next table: 1696
cur table: 1689
epoch: 1000
next table: 2061
cur table: 2020
epoch: 1000
next table: 1764
cur table: 1696
epoch: 1000
next table: 2020
cur table: 2061
epoch: 1000
next table: 1777
cur table: 1764
epoch: 1000
next table: 2010
cur table: 2020
epoch: 1000
next table: 1697
cur table: 1777
epoch: 1000
next table: 2048
cur table: 2010
epoch: 1000
next table: 1691
cur table: 1697
epoch: 1000
next table: 2012
cur table: 2048
epoch: 1000
next table: 1683
cur table: 1691
epoch: 1000
next table: 2011
cur table: 2012
epoch: 1000
next table: 1598
cur table: 1683
epoch: 1000
next table: 2046
cur table: 2011
epoch: 1000
next table: 1632
cur table: 1598
epoch: 1000
next table: 2017
cur table: 2046
epoch: 1000
next table: 1694
cur table: 1632
epoch: 1000
next table: 2016
cur table: 2017
epoch: 1000
next table: 1602
cur table: 1694
epoch: 1000
next table: 2030
cur table: 2016
epoch: 1000
next table: 1633
cur table: 1602
epoch: 1000
next table: 1665
cur table: 1633
epoch: 1000
next table: 2010
cur table: 2030
epoch: 1000
next table: 1657
cur table: 1665
epoch: 1000
next table: 2042
cur table: 2010
epoch: 1000
next table: 1582
cur table: 1657
epoch: 1000
next table: 2021
cur table: 2042
epoch: 1000
next table: 1623
cur table: 1582
epoch: 1000
next table: 2034
cur table: 2021
epoch: 1000
next table: 1664
cur table: 1623
epoch: 1000
next table: 2019
cur table: 2034
epoch: 1000
next table: 1683
cur table: 1664
epoch: 1000
next table: 2067
cur table: 2019
epoch: 1000
next table: 1599
cur table: 1683
epoch: 1000
next table: 2026
cur table: 2067
epoch: 1000
next table: 1646
cur table: 1599
epoch: 1000
next table: 2030
cur table: 2026
epoch: 1000
next table: 1590
cur table: 1646
epoch: 1000
next table: 2013
cur table: 2030
epoch: 1000
next table: 1598
cur table: 1590
epoch: 1000
next table: 2040
cur table: 2013
epoch: 1000
next table: 1637
cur table: 1598
epoch: 1000
next table: 2016
cur table: 2040
epoch: 1000
next table: 1592
cur table: 1637
epoch: 1000
next table: 2023
cur table: 2016
Heartbeat CPU 0 instructions: 100000000 cycles: 147365572 heartbeat IPC: 0.428525 cumulative IPC: 0.380648 (Simulation time: 0 hr 27 min 56 sec) 
Finished CPU 0 instructions: 50000002 cycles: 131354897 cumulative IPC: 0.380648 (Simulation time: 0 hr 27 min 56 sec) 

ChampSim completed all CPUs

Region of Interest Statistics

CPU 0 cumulative IPC: 0.380648 instructions: 50000002 cycles: 131354897
ITLB TOTAL     ACCESS:    7773699  HIT:    7773699  MISS:          0  HIT %:        100  MISS %:          0   MPKI: 0
ITLB LOAD TRANSLATION ACCESS:    7773699  HIT:    7773699  MISS:          0  HIT %:        100  MISS %:          0   MPKI: 0
ITLB PREFETCH  REQUESTED:          0  ISSUED:          0  USEFUL:          0  USELESS:          0
ITLB USEFUL LOAD PREFETCHES:          0 PREFETCH ISSUED TO LOWER LEVEL:          0  ACCURACY: -nan
ITLB TIMELY PREFETCHES:          0 LATE PREFETCHES: 0 DROPPED PREFETCHES: 0
ITLB PREFETCHES SAME FILL-ORIGIN LEVEL: 0 DIFFERENT FILL-ORIGIN LEVEL: 0
ITLB AVERAGE MISS LATENCY: -nan cycles
ITLB RQ	ACCESS:   10510204	FORWARD:          0	MERGED:    2736506	TO_CACHE:    7773698

Revised Interactions: positive negative neutral
ITLB_interactions 0 0 0 -nan -nan -nan
DTLB TOTAL     ACCESS:   13455858  HIT:   13332994  MISS:     122864  HIT %:    99.0869  MISS %:   0.913089   MPKI: 2.45728
DTLB LOAD TRANSLATION ACCESS:   13455858  HIT:   13332994  MISS:     122864  HIT %:    99.0869  MISS %:   0.913089   MPKI: 2.45728
DTLB PREFETCH  REQUESTED:          0  ISSUED:          0  USEFUL:          0  USELESS:          0
DTLB USEFUL LOAD PREFETCHES:          0 PREFETCH ISSUED TO LOWER LEVEL:          0  ACCURACY: -nan
DTLB TIMELY PREFETCHES:          0 LATE PREFETCHES: 0 DROPPED PREFETCHES: 0
DTLB PREFETCHES SAME FILL-ORIGIN LEVEL: 0 DIFFERENT FILL-ORIGIN LEVEL: 0
DTLB AVERAGE MISS LATENCY: 40.373 cycles
DTLB RQ	ACCESS:   23428831	FORWARD:          0	MERGED:    9958413	TO_CACHE:   13470418

Revised Interactions: positive negative neutral
DTLB_interactions 0 0 0 -nan -nan -nan
STLB TOTAL     ACCESS:     122864  HIT:      79532  MISS:      43332  HIT %:    64.7317  MISS %:    35.2683   MPKI: 0.86664
STLB LOAD TRANSLATION ACCESS:     122864  HIT:      79532  MISS:      43332  HIT %:    64.7317  MISS %:    35.2683   MPKI: 0.86664
STLB PREFETCH  REQUESTED:          0  ISSUED:          0  USEFUL:          0  USELESS:          0
STLB USEFUL LOAD PREFETCHES:          0 PREFETCH ISSUED TO LOWER LEVEL:          0  ACCURACY: -nan
STLB TIMELY PREFETCHES:          0 LATE PREFETCHES: 0 DROPPED PREFETCHES: 0
STLB PREFETCHES SAME FILL-ORIGIN LEVEL: 0 DIFFERENT FILL-ORIGIN LEVEL: 0
STLB AVERAGE MISS LATENCY: 88.9219 cycles
STLB RQ	ACCESS:     122864	FORWARD:          0	MERGED:          0	TO_CACHE:     122864

Revised Interactions: positive negative neutral
STLB_interactions 0 0 0 -nan -nan -nan
STLB Hit, L1D data hit: 0
STLB Hit, L2C data hit: 0
STLB Hit, LLC data hit: 0
STLB Hit, LLC data miss: 0
STLB STLB hints to L2: 0
L1D TOTAL     ACCESS:   22885251  HIT:   21369508  MISS:    1515743  HIT %:    93.3768  MISS %:    6.62323   MPKI: 30.3149
L1D LOAD      ACCESS:    9257546  HIT:    7879152  MISS:    1378394  HIT %:    85.1106  MISS %:    14.8894   MPKI: 27.5679
L1D RFO       ACCESS:   13627705  HIT:   13490356  MISS:     137349  HIT %:    98.9921  MISS %:    1.00787   MPKI: 2.74698
L1D PREFETCH  REQUESTED:          0  ISSUED:          0  USEFUL:          0  USELESS:          0
L1D USEFUL LOAD PREFETCHES:          0 PREFETCH ISSUED TO LOWER LEVEL:          0  ACCURACY: -nan
L1D TIMELY PREFETCHES:          0 LATE PREFETCHES: 0 DROPPED PREFETCHES: 0
L1D PREFETCHES SAME FILL-ORIGIN LEVEL: 0 DIFFERENT FILL-ORIGIN LEVEL: 0
L1D AVERAGE MISS LATENCY: 113.607 cycles
L1D RQ	ACCESS:   15838199	FORWARD:          0	MERGED:    6469722	TO_CACHE:    9362203
L1D WQ	ACCESS:   14166007	FORWARD:       6274	MERGED:      99379	TO_CACHE:   14066628

Revised Interactions: positive negative neutral
L1D_interactions 0 0 0 -nan -nan -nan
L1D UNIQUE REGIONS ACCESSED: 0
L1D REGIONS CONFLICTS: 0
L1D Cross Page Prefetch Requests: 0
L1D Same Page Prefetch Requests: 0
L1D ROI Sum of L1D PQ occupancy: 0
L1D PREFETCHES PUSHED FROM L2C: 0
L1I TOTAL     ACCESS:   10510204  HIT:   10510204  MISS:          0  HIT %:        100  MISS %:          0   MPKI: 0
L1I LOAD      ACCESS:   10510204  HIT:   10510204  MISS:          0  HIT %:        100  MISS %:          0   MPKI: 0
L1I PREFETCH  REQUESTED:          0  ISSUED:          0  USEFUL:          0  USELESS:          0
L1I USEFUL LOAD PREFETCHES:          0 PREFETCH ISSUED TO LOWER LEVEL:          0  ACCURACY: -nan
L1I TIMELY PREFETCHES:          0 LATE PREFETCHES: 0 DROPPED PREFETCHES: 0
L1I PREFETCHES SAME FILL-ORIGIN LEVEL: 0 DIFFERENT FILL-ORIGIN LEVEL: 0
L1I AVERAGE MISS LATENCY: -nan cycles
L1I RQ	ACCESS:   13976770	FORWARD:          0	MERGED:    3466566	TO_CACHE:   10510204

Revised Interactions: positive negative neutral
L1I_interactions 0 0 0 -nan -nan -nan
BTB TOTAL     ACCESS:    4939322  HIT:    4939288  MISS:         34  HIT %:    99.9993  MISS %: 0.000688354   MPKI: 0.00068
BTB BRANCH_DIRECT_JUMP	ACCESS:     263981  HIT:     263975  MISS:          6
BTB BRANCH_INDIRECT	ACCESS:          0  HIT:          0  MISS:          0
BTB BRANCH_CONDITIONAL	ACCESS:    4675289  HIT:    4675265  MISS:         24
BTB BRANCH_DIRECT_CALL	ACCESS:         26  HIT:         24  MISS:          2
BTB BRANCH_INDIRECT_CALL	ACCESS:          0  HIT:          0  MISS:          0
BTB BRANCH_RETURN	ACCESS:         26  HIT:         24  MISS:          2
BTB BRANCH_OTHER ACCESS:          0  HIT:          0  MISS:          0

L2C TOTAL     ACCESS:    2182144  HIT:     528688  MISS:    1653456  HIT %:    24.2279  MISS %:    75.7721   MPKI: 33.0691
L2C LOAD      ACCESS:    1378391  HIT:     193046  MISS:    1185345  HIT %:    14.0052  MISS %:    85.9948   MPKI: 23.7069
L2C DATA LOAD MPKI: 23.7069
L2C INSTRUCTION LOAD MPKI: 0
L2C RFO       ACCESS:     137348  HIT:        950  MISS:     136398  HIT %:   0.691674  MISS %:    99.3083   MPKI: 2.72796
L2C PREFETCH  ACCESS:     270633  HIT:      97201  MISS:     173432  HIT %:    35.9162  MISS %:    64.0838   MPKI: 3.46864
L2C DATA PREFETCH MPKI: 3.46864
L2C INSTRUCTION PREFETCH MPKI: 0
L2C WRITEBACK ACCESS:     352352  HIT:     202216  MISS:     150136  HIT %:    57.3903  MISS %:    42.6097   MPKI: 3.00272
L2C LOAD TRANSLATION ACCESS:      43420  HIT:      35275  MISS:       8145  HIT %:    81.2414  MISS %:    18.7586   MPKI: 0.1629
L2C PREFETCH  REQUESTED:    3101757  ISSUED:    3101291  USEFUL:     168928  USELESS:       4508
L2C USEFUL LOAD PREFETCHES:     168928 PREFETCH ISSUED TO LOWER LEVEL:    2812734  ACCURACY: 6.00583
L2C TIMELY PREFETCHES:     168928 LATE PREFETCHES: 7736 DROPPED PREFETCHES: 0
L2C PREFETCHES SAME FILL-ORIGIN LEVEL: 181168 DIFFERENT FILL-ORIGIN LEVEL: 2631566
L2C AVERAGE MISS LATENCY: 95.6532 cycles
L2C RQ	ACCESS:    1559164	FORWARD:          0	MERGED:          0	TO_CACHE:    1559160
L2C WQ	ACCESS:     352352	FORWARD:          7	MERGED:          0	TO_CACHE:     352352
L2C PQ	ACCESS:    3101291	FORWARD:          0	MERGED:     102273	TO_CACHE:    2999015

Revised Interactions: positive negative neutral
L2C_interactions 168418 4437 3721 95.3799 2.5128 2.10731
L2C Instructions Evicting Data 0
L2C Translations Evicting Data 8096
L2C Data Evicting Data 1488016
L2C Instructions Evicting Instructions 0
L2C Translations Evicting Instructions 0
L2C Data Evicting Instructions 0
L2C Instructions Evicting Translations 0
L2C Translations Evicting Translations 49
L2C Data Evicting Translations 7159
L2C Dense regions hint from L2: 0
PSCL5 TOTAL     ACCESS:      43332  HIT:      43332  MISS:          0  HIT %:        100  MISS %:          0   MPKI: 0
PSCL5 LOAD TRANSLATION ACCESS:      43332  HIT:      43332  MISS:          0  HIT %:        100  MISS %:          0   MPKI: 0
PSCL5 PREFETCH  REQUESTED:          0  ISSUED:          0  USEFUL:          0  USELESS:          0
PSCL5 USEFUL LOAD PREFETCHES:          0 PREFETCH ISSUED TO LOWER LEVEL:          0  ACCURACY: -nan
PSCL5 TIMELY PREFETCHES:          0 LATE PREFETCHES: 0 DROPPED PREFETCHES: 0
PSCL5 PREFETCHES SAME FILL-ORIGIN LEVEL: 0 DIFFERENT FILL-ORIGIN LEVEL: 0

Revised Interactions: positive negative neutral
PSCL5_interactions 0 0 0 -nan -nan -nan
PSCL4 TOTAL     ACCESS:      43332  HIT:      43332  MISS:          0  HIT %:        100  MISS %:          0   MPKI: 0
PSCL4 LOAD TRANSLATION ACCESS:      43332  HIT:      43332  MISS:          0  HIT %:        100  MISS %:          0   MPKI: 0
PSCL4 PREFETCH  REQUESTED:          0  ISSUED:          0  USEFUL:          0  USELESS:          0
PSCL4 USEFUL LOAD PREFETCHES:          0 PREFETCH ISSUED TO LOWER LEVEL:          0  ACCURACY: -nan
PSCL4 TIMELY PREFETCHES:          0 LATE PREFETCHES: 0 DROPPED PREFETCHES: 0
PSCL4 PREFETCHES SAME FILL-ORIGIN LEVEL: 0 DIFFERENT FILL-ORIGIN LEVEL: 0

Revised Interactions: positive negative neutral
PSCL4_interactions 0 0 0 -nan -nan -nan
PSCL3 TOTAL     ACCESS:      43332  HIT:      43332  MISS:          0  HIT %:        100  MISS %:          0   MPKI: 0
PSCL3 LOAD TRANSLATION ACCESS:      43332  HIT:      43332  MISS:          0  HIT %:        100  MISS %:          0   MPKI: 0
PSCL3 PREFETCH  REQUESTED:          0  ISSUED:          0  USEFUL:          0  USELESS:          0
PSCL3 USEFUL LOAD PREFETCHES:          0 PREFETCH ISSUED TO LOWER LEVEL:          0  ACCURACY: -nan
PSCL3 TIMELY PREFETCHES:          0 LATE PREFETCHES: 0 DROPPED PREFETCHES: 0
PSCL3 PREFETCHES SAME FILL-ORIGIN LEVEL: 0 DIFFERENT FILL-ORIGIN LEVEL: 0

Revised Interactions: positive negative neutral
PSCL3_interactions 0 0 0 -nan -nan -nan
PSCL2 TOTAL     ACCESS:      43332  HIT:      43209  MISS:        123  HIT %:    99.7161  MISS %:   0.283855   MPKI: 0.00246
PSCL2 LOAD TRANSLATION ACCESS:      43332  HIT:      43209  MISS:        123  HIT %:    99.7161  MISS %:   0.283855   MPKI: 0.00246
PSCL2 PREFETCH  REQUESTED:          0  ISSUED:          0  USEFUL:          0  USELESS:          0
PSCL2 USEFUL LOAD PREFETCHES:          0 PREFETCH ISSUED TO LOWER LEVEL:          0  ACCURACY: -nan
PSCL2 TIMELY PREFETCHES:          0 LATE PREFETCHES: 0 DROPPED PREFETCHES: 0
PSCL2 PREFETCHES SAME FILL-ORIGIN LEVEL: 0 DIFFERENT FILL-ORIGIN LEVEL: 0

Revised Interactions: positive negative neutral
PSCL2_interactions 0 0 0 -nan -nan -nan
LLC TOTAL     ACCESS:    3950435  HIT:    2028178  MISS:    1922257  HIT %:    51.3406  MISS %:    48.6594   MPKI: 38.4451
LLC LOAD      ACCESS:    1177622  HIT:     516476  MISS:     661146  HIT %:    43.8575  MISS %:    56.1425   MPKI: 13.2229
LLC RFO       ACCESS:     136385  HIT:       7444  MISS:     128941  HIT %:    5.45808  MISS %:    94.5419   MPKI: 2.57882
LLC PREFETCH  ACCESS:    2294410  HIT:    1400748  MISS:     893662  HIT %:    61.0505  MISS %:    38.9495   MPKI: 17.8732
LLC WRITEBACK ACCESS:     333873  HIT:     102349  MISS:     231524  HIT %:    30.6551  MISS %:    69.3449   MPKI: 4.63048
LLC LOAD TRANSLATION ACCESS:       8145  HIT:       1161  MISS:       6984  HIT %:    14.2541  MISS %:    85.7459   MPKI: 0.13968
LLC PREFETCH  REQUESTED:          0  ISSUED:          0  USEFUL:     513270  USELESS:     375734
LLC USEFUL LOAD PREFETCHES:     513270 PREFETCH ISSUED TO LOWER LEVEL:    1132807  ACCURACY: 45.3096
LLC TIMELY PREFETCHES:     513270 LATE PREFETCHES: 239145 DROPPED PREFETCHES: 0
LLC PREFETCHES SAME FILL-ORIGIN LEVEL: 1117314 DIFFERENT FILL-ORIGIN LEVEL: 0
LLC AVERAGE MISS LATENCY: 131.693 cycles
LLC RQ	ACCESS:    1322153	FORWARD:          0	MERGED:          0	TO_CACHE:    1322153
LLC WQ	ACCESS:     333873	FORWARD:          0	MERGED:          0	TO_CACHE:     333873
LLC PQ	ACCESS:    2812734	FORWARD:          0	MERGED:      30355	TO_CACHE:    2782379

Revised Interactions: positive negative neutral
LLC_interactions 512797 379367 159076 48.7802 36.0876 15.1322
LLC Dense regions hint to LLC: 0

RAW hits: 377314
Loads Generated: 16215513
Loads sent to L1D: 15838199
Stores Generated: 14166002
Stores sent to L1D: 14166007
Major fault: 0 Minor fault: 31203
Allocated PAGES: 31203
 All Calls: 2436219
 Critical Calls: 2436219
------------------
Depth Distribution
------------------
depth 0: 0
depth 1: 2280827
depth 2: 1256935
depth 3: 785230
depth 4: 488090
depth 5: 280561
depth 6: 199314
depth 7: 128146
depth 8: 72207
depth 9: 23619
depth 10: 880
depth 11: 42
depth 12: 0
depth 13: 0
depth 14: 0
depth 15: 0
depth 16: 0
depth 17: 0
depth 18: 0
depth 19: 0
depth 20: 0
depth 21: 0
depth 22: 0
depth 23: 0
depth 24: 0
depth 25: 0
depth 26: 0
depth 27: 0
depth 28: 0
depth 29: 0
Total: 5515851
-----------------------------
-----------------------------
	Captured at Filter
-----------------------------
depth 0: 0
depth 1: 15567
depth 2: 6351
depth 3: 3148
depth 4: 1647
depth 5: 819
depth 6: 514
depth 7: 302
depth 8: 142
depth 9: 39
depth 10: 3
depth 11: 0
depth 12: 0
depth 13: 0
depth 14: 0
depth 15: 0
depth 16: 0
depth 17: 0
depth 18: 0
depth 19: 0
depth 20: 0
depth 21: 0
depth 22: 0
depth 23: 0
depth 24: 0
depth 25: 0
depth 26: 0
depth 27: 0
depth 28: 0
depth 29: 0
-----------------------------
-----------------------------
		Lost at Page
-----------------------------
depth 0: 0
depth 1: 102798
depth 2: 75405
depth 3: 62371
depth 4: 50186
depth 5: 30243
depth 6: 23953
depth 7: 16965
depth 8: 10106
depth 9: 3644
depth 10: 169
depth 11: 8
depth 12: 0
depth 13: 0
depth 14: 0
depth 15: 0
depth 16: 0
depth 17: 0
depth 18: 0
depth 19: 0
depth 20: 0
depth 21: 0
depth 22: 0
depth 23: 0
depth 24: 0
depth 25: 0
depth 26: 0
depth 27: 0
depth 28: 0
depth 29: 0
-----------------------------
-----------------------------
	Lost due to PQ Size
-----------------------------
356810
-----------------------------
ST read accesses: 1336293
ST write accesses: 42098
PT read accesses: 25396309
PT write accesses: 1983638
FILTER read accesses: 6145137
FILTER write accesses: 2034328
GHR read accesses: 1358065
GHR write accesses: 195320
GHR counter read accesses: 20897722
GHR counter write accesses: 1750009
ST tag read accesses: 550881990
ST tag write accesses: 15378426

DRAM Statistics
 CHANNEL 0
 RQ ROW_BUFFER_HIT:     738011  ROW_BUFFER_MISS:     952721
 DBUS_CONGESTED:       2240
 WQ ROW_BUFFER_HIT:      67502  ROW_BUFFER_MISS:     267539  FULL:          0

 AVG_CONGESTED_CYCLE: 4
 All warmup complete: 2
Channel 0 Bank busy for read cycles: 0
Channel 0 Bank busy for write cycles: 0
Channel 0
Rank 0
0banks busy for read cycles: 36716335
0banks busy for write cycles: 57072
1banks busy for read cycles: 25116749
1banks busy for write cycles: 7906420
2banks busy for read cycles: 16505462
2banks busy for write cycles: 4723028
3banks busy for read cycles: 10877439
3banks busy for write cycles: 3085939
4banks busy for read cycles: 7087708
4banks busy for write cycles: 2014173
5banks busy for read cycles: 4678548
5banks busy for write cycles: 1278650
6banks busy for read cycles: 2974048
6banks busy for write cycles: 873517
7banks busy for read cycles: 1763982
7banks busy for write cycles: 871541
8banks busy for read cycles: 912160
8banks busy for write cycles: 3912127

CPU 0 Branch Prediction Accuracy: 98.167% MPKI: 1.85038 Average ROB Occupancy at Mispredict: 198.391
Branch types
NOT_BRANCH: 44952410 89.9048%
BRANCH_DIRECT_JUMP: 263981 0.527962%
BRANCH_INDIRECT: 0 0%
BRANCH_CONDITIONAL: 4783413 9.56683%
BRANCH_DIRECT_CALL: 26 5.2e-05%
BRANCH_INDIRECT_CALL: 0 0%
BRANCH_RETURN: 26 5.2e-05%
BRANCH_OTHER: 0 0%

@sumon_overall_L1D         0         0         0         0         0         0         0
@Sumon_Early_by_class_L1D         0         0         0         0
@Sumon_Late_by_class_L1D         0         0         0         0

@Sumon_Early_by_cycle_L1D         0         0         0         0         0         0         0         0         0         0         0         0
@Sumon_Late_by_cycle_L1D         0         0         0         0         0         0
@Sumon_Early_stream_L1D         0         0         0         0         0         0         0         0         0         0         0         0
@Sumon_Early_CS_L1D         0         0         0         0         0         0         0         0         0         0         0         0
@Sumon_Early_CPLX_L1D         0         0         0         0         0         0         0         0         0         0         0         0
@Sumon_Late_stream_L1D         0         0         0         0         0         0
@Sumon_Late_CS_L1D         0         0         0         0         0         0
@Sumon_Late_CPLX_L1D         0         0         0         0         0         0
@sumon_overall_L2C    168928      7736         0      4508    173432   3101291   3101757
@Sumon_Early_by_class_L2C         0         0         0         0
@Sumon_Late_by_class_L2C         0         0         0         0

@Sumon_Early_by_cycle_L2C     73585     23927     21210      8254      1972     24677     12913      1698       411       202        52        27
@Sumon_Late_by_cycle_L2C      1091      1044       994      1665      2934         8
@Sumon_Early_stream_L2C         0         0         0         0         0         0         0         0         0         0         0         0
@Sumon_Early_CS_L2C         0         0         0         0         0         0         0         0         0         0         0         0
@Sumon_Early_CPLX_L2C         0         0         0         0         0         0         0         0         0         0         0         0
@Sumon_Late_stream_L2C         0         0         0         0         0         0
@Sumon_Late_CS_L2C         0         0         0         0         0         0
@Sumon_Late_CPLX_L2C         0         0         0         0         0         0
DRAM PAGES: 1048576
Allocated PAGES: 31203
