Initialize SIGNATURE TABLE
ST_SET: 1
ST_WAY: 256
ST_TAG_BIT: 16
ST_TAG_MASK: ffff

Initialize PATTERN TABLE
PT_SET: 512
PT_WAY: 4
SIG_DELTA_BIT: 7
C_SIG_BIT: 4
C_DELTA_BIT: 4

Initialize PREFETCH FILTER
FILTER_SET: 1024

*** ChampSim Multicore Out-of-Order Simulator ***

Warmup Instructions: 50000000
Simulation Instructions: 50000000
Number of CPUs: 1
LLC sets: 2048
LLC ways: 16
Off-chip DRAM Size: 4096 MB Channels: 1 Width: 64-bit Data Rate: 6400 MT/s
CPU 0 runs ../../biswa/SPEC2017Traces/607.cactuBSSN_s-4004B.champsimtrace.xz
.xz
CPU 0 Bimodal branch predictor
BTB has LRU replacement policy
ITLB has LRU replacement policy
DTLB has LRU replacement policy
STLB has LRU replacement policy
L1I has LRU replacement policy
L1D has LRU replacement policy
ST_WAYS: 256
PT_SETS: 512
Initialize DRRIP state for L2C
Initialize DRRIP state for LLC
epoch: 1000
next table: 26137
cur table: 80905
epoch: 1000
next table: 29242
cur table: 26137
epoch: 1000
next table: 27388
cur table: 29242
epoch: 1000
next table: 26956
cur table: 27388
epoch: 1000
next table: 16630
cur table: 26956
epoch: 1000
next table: 22106
cur table: 16630
epoch: 1000
next table: 24489
cur table: 22106
epoch: 1000
next table: 25103
cur table: 24489
epoch: 1000
next table: 18702
cur table: 25103
epoch: 1000
next table: 23670
cur table: 18702
epoch: 1000
next table: 23201
cur table: 23670
epoch: 1000
next table: 27142
cur table: 23201
epoch: 1000
next table: 19726
cur table: 27142
epoch: 1000
next table: 23107
cur table: 19726
epoch: 1000
next table: 24880
cur table: 23107
epoch: 1000
next table: 23818
cur table: 24880
epoch: 1000
next table: 19833
cur table: 23818
epoch: 1000
next table: 23637
cur table: 19833
epoch: 1000
next table: 19018
cur table: 23637
epoch: 1000
next table: 22810
cur table: 19018
epoch: 1000
next table: 22761
cur table: 22810
epoch: 1000
next table: 18483
cur table: 22761
epoch: 1000
next table: 21769
cur table: 18483
epoch: 1000
next table: 22600
cur table: 21769
epoch: 1000
next table: 21510
cur table: 22600
epoch: 1000
next table: 19188
cur table: 21510
epoch: 1000
next table: 21887
cur table: 19188
epoch: 1000
next table: 22736
cur table: 21887
epoch: 1000
next table: 22131
cur table: 22736
epoch: 1000
next table: 22640
cur table: 22131
epoch: 1000
next table: 20558
cur table: 22640
epoch: 1000
next table: 20177
cur table: 20558
epoch: 1000
next table: 23409
cur table: 20177
epoch: 1000
next table: 24065
cur table: 23409
epoch: 1000
next table: 21938
cur table: 24065
epoch: 1000
next table: 24738
cur table: 21938
epoch: 1000
next table: 25454
cur table: 24738
epoch: 1000
next table: 25990
cur table: 25454
epoch: 1000
next table: 21131
cur table: 25990
epoch: 1000
next table: 27144
cur table: 21131
epoch: 1000
next table: 26138
cur table: 27144
epoch: 1000
next table: 4428
cur table: 46629
Heartbeat CPU 0 instructions: 10000001 cycles: 3597372 heartbeat IPC: 2.77981 cumulative IPC: 2.77981 (Simulation time: 0 hr 2 min 57 sec) 
epoch: 1000
next table: 19424
cur table: 26138
epoch: 1000
next table: 15705
cur table: 19424
epoch: 1000
next table: 18115
cur table: 15705
epoch: 1000
next table: 3283
cur table: 4428
epoch: 1000
next table: 18744
cur table: 18115
epoch: 1000
next table: 22679
cur table: 18744
epoch: 1000
next table: 2879
cur table: 3283
epoch: 1000
next table: 24811
cur table: 22679
epoch: 1000
next table: 19670
cur table: 24811
epoch: 1000
next table: 2779
cur table: 2879
epoch: 1000
next table: 24862
cur table: 19670
epoch: 1000
next table: 22121
cur table: 24862
epoch: 1000
next table: 2928
cur table: 2779
epoch: 1000
next table: 22434
cur table: 22121
epoch: 1000
next table: 16903
cur table: 22434
epoch: 1000
next table: 2795
cur table: 2928
epoch: 1000
next table: 20303
cur table: 16903
epoch: 1000
next table: 20739
cur table: 20303
epoch: 1000
next table: 3262
cur table: 2795
epoch: 1000
next table: 20889
cur table: 20739
epoch: 1000
next table: 20765
cur table: 20889
epoch: 1000
next table: 3071
cur table: 3262
epoch: 1000
next table: 17419
cur table: 20765
epoch: 1000
next table: 19471
cur table: 17419
epoch: 1000
next table: 2757
cur table: 3071
epoch: 1000
next table: 19674
cur table: 19471
epoch: 1000
next table: 21774
cur table: 19674
epoch: 1000
next table: 2674
cur table: 2757
epoch: 1000
next table: 19692
cur table: 21774
epoch: 1000
next table: 18020
cur table: 19692
epoch: 1000
next table: 2922
cur table: 2674
epoch: 1000
next table: 20164
cur table: 18020
epoch: 1000
next table: 21499
cur table: 20164
epoch: 1000
next table: 2950
cur table: 2922
epoch: 1000
next table: 19935
cur table: 21499
epoch: 1000
next table: 19856
cur table: 19935
epoch: 1000
next table: 2987
cur table: 2950
epoch: 1000
next table: 18066
cur table: 19856
epoch: 1000
next table: 20569
cur table: 18066
epoch: 1000
next table: 3083
cur table: 2987
epoch: 1000
next table: 20589
cur table: 20569
epoch: 1000
next table: 18969
cur table: 20589
epoch: 1000
next table: 3017
cur table: 3083
epoch: 1000
next table: 18392
cur table: 18969
epoch: 1000
next table: 18250
cur table: 18392
epoch: 1000
next table: 2929
cur table: 3017
epoch: 1000
next table: 19541
cur table: 18250
epoch: 1000
next table: 18757
cur table: 19541
epoch: 1000
next table: 2768
cur table: 2929
epoch: 1000
next table: 20531
cur table: 18757
epoch: 1000
next table: 18154
cur table: 20531
epoch: 1000
next table: 2952
cur table: 2768
epoch: 1000
next table: 18746
cur table: 18154
epoch: 1000
next table: 21528
cur table: 18746
epoch: 1000
next table: 2900
cur table: 2952
epoch: 1000
next table: 19319
cur table: 21528
epoch: 1000
next table: 21267
cur table: 19319
epoch: 1000
next table: 3074
cur table: 2900
epoch: 1000
next table: 16647
cur table: 21267
epoch: 1000
next table: 21362
cur table: 16647
epoch: 1000
next table: 3144
cur table: 3074
epoch: 1000
next table: 19869
cur table: 21362
epoch: 1000
next table: 21753
cur table: 19869
epoch: 1000
next table: 3045
cur table: 3144
epoch: 1000
next table: 19706
cur table: 21753
epoch: 1000
next table: 17279
cur table: 19706
epoch: 1000
next table: 2884
cur table: 3045
epoch: 1000
next table: 19564
cur table: 17279
epoch: 1000
next table: 19610
cur table: 19564
epoch: 1000
next table: 2743
cur table: 2884
epoch: 1000
next table: 20551
cur table: 19610
epoch: 1000
next table: 19613
cur table: 20551
epoch: 1000
next table: 2855
cur table: 2743
epoch: 1000
next table: 16406
cur table: 19613
epoch: 1000
next table: 19537
cur table: 16406
epoch: 1000
next table: 2968
cur table: 2855
epoch: 1000
next table: 21695
cur table: 19537
epoch: 1000
next table: 19894
cur table: 21695
Heartbeat CPU 0 instructions: 20000001 cycles: 7194531 heartbeat IPC: 2.77997 cumulative IPC: 2.77989 (Simulation time: 0 hr 6 min 3 sec) 
epoch: 1000
next table: 3041
cur table: 2968
epoch: 1000
next table: 21687
cur table: 19894
epoch: 1000
next table: 17415
cur table: 21687
epoch: 1000
next table: 2998
cur table: 3041
epoch: 1000
next table: 20812
cur table: 17415
epoch: 1000
next table: 20695
cur table: 20812
epoch: 1000
next table: 20748
cur table: 20695
epoch: 1000
next table: 3086
cur table: 2998
epoch: 1000
next table: 22231
cur table: 20748
epoch: 1000
next table: 2878
cur table: 3086
epoch: 1000
next table: 15992
cur table: 22231
epoch: 1000
next table: 21738
cur table: 15992
epoch: 1000
next table: 2577
cur table: 2878
epoch: 1000
next table: 22653
cur table: 21738
epoch: 1000
next table: 23021
cur table: 22653
epoch: 1000
next table: 2542
cur table: 2577
epoch: 1000
next table: 19496
cur table: 23021
epoch: 1000
next table: 2704
cur table: 2542
epoch: 1000
next table: 23967
cur table: 19496
epoch: 1000
next table: 23418
cur table: 23967
epoch: 1000
next table: 2799
cur table: 2704
epoch: 1000
next table: 22938
cur table: 23418
epoch: 1000
next table: 19913
cur table: 22938
epoch: 1000
next table: 2677
cur table: 2799
epoch: 1000
next table: 25740
cur table: 19913
epoch: 1000
next table: 22802
cur table: 25740
epoch: 1000
next table: 2924
cur table: 2677
epoch: 1000
next table: 22734
cur table: 22802
epoch: 1000
next table: 21588
cur table: 22734
epoch: 1000
next table: 2736
cur table: 2924
epoch: 1000
next table: 20123
cur table: 21588
epoch: 1000
next table: 2534
cur table: 2736
epoch: 1000
next table: 21951
cur table: 20123
epoch: 1000
next table: 25661
cur table: 21951
epoch: 1000
next table: 2415
cur table: 2534
epoch: 1000
next table: 23523
cur table: 25661
epoch: 1000
next table: 19644
cur table: 23523
epoch: 1000
next table: 2512
cur table: 2415
epoch: 1000
next table: 26917
cur table: 19644
epoch: 1000
next table: 2753
cur table: 2512
epoch: 1000
next table: 25032
cur table: 26917
epoch: 1000
next table: 25401
cur table: 25032
epoch: 1000
next table: 2573
cur table: 2753
epoch: 1000
next table: 20714
cur table: 25401
epoch: 1000
next table: 26098
cur table: 20714
epoch: 1000
next table: 2792
cur table: 2573
epoch: 1000
next table: 26091
cur table: 26098
epoch: 1000
next table: 2636
cur table: 2792
epoch: 1000
next table: 23415
cur table: 26091
epoch: 1000
next table: 20208
cur table: 23415
epoch: 1000
next table: 2529
cur table: 2636
epoch: 1000
next table: 23131
cur table: 20208
epoch: 1000
next table: 22936
cur table: 23131
epoch: 1000
next table: 2407
cur table: 2529
epoch: 1000
next table: 23245
cur table: 22936
epoch: 1000
next table: 2741
cur table: 2407
epoch: 1000
next table: 19266
cur table: 23245
epoch: 1000
next table: 22735
cur table: 19266
epoch: 1000
next table: 2802
cur table: 2741
epoch: 1000
next table: 22894
cur table: 22735
epoch: 1000
next table: 21753
cur table: 22894
epoch: 1000
next table: 2813
cur table: 2802
epoch: 1000
next table: 16904
cur table: 21753
epoch: 1000
next table: 22420
cur table: 16904
epoch: 1000
next table: 3134
cur table: 2813
epoch: 1000
next table: 20931
cur table: 22420
epoch: 1000
next table: 20748
cur table: 20931
epoch: 1000
next table: 2999
cur table: 3134
epoch: 1000
next table: 21876
cur table: 20748
epoch: 1000
next table: 15235
cur table: 21876
epoch: 1000
next table: 2815
cur table: 2999
epoch: 1000
next table: 19997
cur table: 15235
epoch: 1000
next table: 22422
cur table: 19997
epoch: 1000
next table: 2593
cur table: 2815
epoch: 1000
next table: 19128
cur table: 22422
Heartbeat CPU 0 instructions: 30000003 cycles: 10791402 heartbeat IPC: 2.78019 cumulative IPC: 2.77999 (Simulation time: 0 hr 9 min 3 sec) 
epoch: 1000
next table: 22182
cur table: 19128
epoch: 1000
next table: 2929
cur table: 2593
epoch: 1000
next table: 15650
cur table: 22182
epoch: 1000
next table: 22474
cur table: 15650
epoch: 1000
next table: 2865
cur table: 2929
epoch: 1000
next table: 21118
cur table: 22474
epoch: 1000
next table: 20484
cur table: 21118
epoch: 1000
next table: 3079
cur table: 2865
epoch: 1000
next table: 19246
cur table: 20484
epoch: 1000
next table: 18274
cur table: 19246
epoch: 1000
next table: 3239
cur table: 3079
epoch: 1000
next table: 19933
cur table: 18274
epoch: 1000
next table: 20426
cur table: 19933
epoch: 1000
next table: 3008
cur table: 3239
epoch: 1000
next table: 20761
cur table: 20426
epoch: 1000
next table: 19171
cur table: 20761
epoch: 1000
next table: 2949
cur table: 3008
epoch: 1000
next table: 18580
cur table: 19171
epoch: 1000
next table: 18852
cur table: 18580
epoch: 1000
next table: 2625
cur table: 2949
epoch: 1000
next table: 21600
cur table: 18852
epoch: 1000
next table: 20023
cur table: 21600
epoch: 1000
next table: 2809
cur table: 2625
epoch: 1000
next table: 17218
cur table: 20023
epoch: 1000
next table: 20758
cur table: 17218
epoch: 1000
next table: 2927
cur table: 2809
epoch: 1000
next table: 22836
cur table: 20758
epoch: 1000
next table: 20506
cur table: 22836
epoch: 1000
next table: 3041
cur table: 2927
epoch: 1000
next table: 20941
cur table: 20506
epoch: 1000
next table: 16211
cur table: 20941
epoch: 1000
next table: 3028
cur table: 3041
epoch: 1000
next table: 21821
cur table: 16211
epoch: 1000
next table: 20963
cur table: 21821
epoch: 1000
next table: 3093
cur table: 3028
epoch: 1000
next table: 20624
cur table: 20963
epoch: 1000
next table: 20787
cur table: 20624
epoch: 1000
next table: 2966
cur table: 3093
epoch: 1000
next table: 16333
cur table: 20787
epoch: 1000
next table: 19891
cur table: 16333
epoch: 1000
next table: 2578
cur table: 2966
epoch: 1000
next table: 22479
cur table: 19891
epoch: 1000
next table: 23113
cur table: 22479
epoch: 1000
next table: 2584
cur table: 2578
epoch: 1000
next table: 19200
cur table: 23113
epoch: 1000
next table: 2698
cur table: 2584
epoch: 1000
next table: 22952
cur table: 19200
epoch: 1000
next table: 23335
cur table: 22952
epoch: 1000
next table: 2863
cur table: 2698
epoch: 1000
next table: 23486
cur table: 23335
epoch: 1000
next table: 23616
cur table: 23486
epoch: 1000
next table: 2612
cur table: 2863
epoch: 1000
next table: 22546
cur table: 23616
epoch: 1000
next table: 25969
cur table: 22546
epoch: 1000
next table: 2819
cur table: 2612
epoch: 1000
next table: 24231
cur table: 25969
epoch: 1000
next table: 22477
cur table: 24231
epoch: 1000
next table: 2629
cur table: 2819
epoch: 1000
next table: 24193
cur table: 22477
epoch: 1000
next table: 2284
cur table: 2629
epoch: 1000
next table: 26016
cur table: 24193
epoch: 1000
next table: 2386
cur table: 2284
epoch: 1000
next table: 24297
cur table: 26016
epoch: 1000
next table: 20766
cur table: 24297
epoch: 1000
next table: 2601
cur table: 2386
epoch: 1000
next table: 26031
cur table: 20766
epoch: 1000
next table: 27115
cur table: 26031
epoch: 1000
next table: 2566
cur table: 2601
epoch: 1000
next table: 23574
cur table: 27115
epoch: 1000
next table: 2445
cur table: 2566
epoch: 1000
next table: 23606
cur table: 23574
epoch: 1000
next table: 26000
cur table: 23606
epoch: 1000
next table: 2841
cur table: 2445
epoch: 1000
next table: 24347
cur table: 26000
Heartbeat CPU 0 instructions: 40000002 cycles: 14388851 heartbeat IPC: 2.77975 cumulative IPC: 2.77993 (Simulation time: 0 hr 12 min 16 sec) 
epoch: 1000
next table: 27187
cur table: 24347
epoch: 1000
next table: 2585
cur table: 2841
epoch: 1000
next table: 19679
cur table: 27187
epoch: 1000
next table: 2486
cur table: 2585
epoch: 1000
next table: 25534
cur table: 19679
epoch: 1000
next table: 24308
cur table: 25534
epoch: 1000
next table: 2301
cur table: 2486
epoch: 1000
next table: 27077
cur table: 24308
epoch: 1000
next table: 2516
cur table: 2301
epoch: 1000
next table: 20043
cur table: 27077
epoch: 1000
next table: 26980
cur table: 20043
epoch: 1000
next table: 2716
cur table: 2516
epoch: 1000
next table: 23530
cur table: 26980
epoch: 1000
next table: 2455
cur table: 2716
epoch: 1000
next table: 26553
cur table: 23530
epoch: 1000
next table: 19958
cur table: 26553
epoch: 1000
next table: 2957
cur table: 2455
epoch: 1000
next table: 24769
cur table: 19958
epoch: 1000
next table: 24200
cur table: 24769
epoch: 1000
next table: 2664
cur table: 2957
epoch: 1000
next table: 24025
cur table: 24200
epoch: 1000
next table: 18382
cur table: 24025
epoch: 1000
next table: 2598
cur table: 2664
epoch: 1000
next table: 22902
cur table: 18382
epoch: 1000
next table: 2351
cur table: 2598
epoch: 1000
next table: 24024
cur table: 22902
epoch: 1000
next table: 25135
cur table: 24024
epoch: 1000
next table: 2597
cur table: 2351
epoch: 1000
next table: 20602
cur table: 25135
epoch: 1000
next table: 24152
cur table: 20602
epoch: 1000
next table: 2732
cur table: 2597
epoch: 1000
next table: 25763
cur table: 24152
epoch: 1000
next table: 2591
cur table: 2732
epoch: 1000
next table: 24351
cur table: 25763
epoch: 1000
next table: 21721
cur table: 24351
epoch: 1000
next table: 2767
cur table: 2591
epoch: 1000
next table: 25144
cur table: 21721
epoch: 1000
next table: 26106
cur table: 25144
epoch: 1000
next table: 2612
cur table: 2767
epoch: 1000
next table: 24066
cur table: 26106
epoch: 1000
next table: 18575
cur table: 24066
epoch: 1000
next table: 2687
cur table: 2612
epoch: 1000
next table: 22816
cur table: 18575
epoch: 1000
next table: 2423
cur table: 2687
epoch: 1000
next table: 22725
cur table: 22816
epoch: 1000
next table: 23927
cur table: 22725
epoch: 1000
next table: 2642
cur table: 2423
epoch: 1000
next table: 18495
cur table: 23927
epoch: 1000
next table: 22755
cur table: 18495
epoch: 1000
next table: 2779
cur table: 2642
epoch: 1000
next table: 22091
cur table: 22755
epoch: 1000
next table: 21194
cur table: 22091
epoch: 1000
next table: 2864
cur table: 2779
epoch: 1000
next table: 22550
cur table: 21194
epoch: 1000
next table: 18493
cur table: 22550
epoch: 1000
next table: 3050
cur table: 2864
epoch: 1000
next table: 20704
cur table: 18493
epoch: 1000
next table: 21851
cur table: 20704
epoch: 1000
next table: 2973
cur table: 3050
epoch: 1000
next table: 22826
cur table: 21851
epoch: 1000
next table: 18147
cur table: 22826
epoch: 1000
next table: 2799
cur table: 2973
epoch: 1000
next table: 19961
cur table: 18147
epoch: 1000
next table: 2515
cur table: 2799
epoch: 1000
next table: 22827
cur table: 19961
epoch: 1000
next table: 21991
cur table: 22827
epoch: 1000
next table: 2654
cur table: 2515
epoch: 1000
next table: 21576
cur table: 21991
epoch: 1000
next table: 17646
cur table: 21576
epoch: 1000
next table: 2869
cur table: 2654
epoch: 1000
next table: 23030
cur table: 17646
epoch: 1000
next table: 22485
cur table: 23030
epoch: 1000
next table: 2947
cur table: 2869
Heartbeat CPU 0 instructions: 50000002 cycles: 17984709 heartbeat IPC: 2.78098 cumulative IPC: 2.78014 (Simulation time: 0 hr 15 min 0 sec) 

Warmup complete CPU 0 instructions: 50000002 cycles: 17984709 (Simulation time: 0 hr 15 min 0 sec) 

epoch: 1000
next table: 18312
cur table: 21144
epoch: 1000
next table: 20038
cur table: 18312
epoch: 1000
next table: 22604
cur table: 20038
epoch: 1000
next table: 2969
cur table: 2864
epoch: 1000
next table: 23056
cur table: 22604
epoch: 1000
next table: 2784
cur table: 2969
epoch: 1000
next table: 20614
cur table: 23056
epoch: 1000
next table: 17426
cur table: 20614
epoch: 1000
next table: 2643
cur table: 2784
epoch: 1000
next table: 22659
cur table: 17426
epoch: 1000
next table: 20758
cur table: 22659
epoch: 1000
next table: 2614
cur table: 2643
epoch: 1000
next table: 20917
cur table: 20758
epoch: 1000
next table: 18339
cur table: 20917
epoch: 1000
next table: 2630
cur table: 2614
epoch: 1000
next table: 21806
cur table: 18339
epoch: 1000
next table: 20906
cur table: 21806
epoch: 1000
next table: 3174
cur table: 2630
epoch: 1000
next table: 21814
cur table: 20906
epoch: 1000
next table: 21598
cur table: 21814
epoch: 1000
next table: 2799
cur table: 3174
epoch: 1000
next table: 17410
cur table: 21598
epoch: 1000
next table: 20899
cur table: 17410
epoch: 1000
next table: 3056
cur table: 2799
epoch: 1000
next table: 20467
cur table: 20899
epoch: 1000
next table: 21772
cur table: 20467
epoch: 1000
next table: 3028
cur table: 3056
epoch: 1000
next table: 18630
cur table: 21772
epoch: 1000
next table: 16480
cur table: 18630
epoch: 1000
next table: 2822
cur table: 3028
epoch: 1000
next table: 21436
cur table: 16480
epoch: 1000
next table: 20014
cur table: 21436
epoch: 1000
next table: 2665
cur table: 2822
epoch: 1000
next table: 22435
cur table: 20014
epoch: 1000
next table: 19047
cur table: 22435
epoch: 1000
next table: 18993
cur table: 19047
epoch: 1000
next table: 3863
cur table: 2665
epoch: 1000
next table: 20852
cur table: 18993
epoch: 1000
next table: 20886
cur table: 20852
epoch: 1000
next table: 3386
cur table: 3863
epoch: 1000
next table: 20674
cur table: 20886
epoch: 1000
next table: 17570
cur table: 20674
epoch: 1000
next table: 2966
cur table: 3386
epoch: 1000
next table: 21604
cur table: 17570
epoch: 1000
next table: 20129
cur table: 21604
epoch: 1000
next table: 2831
cur table: 2966
epoch: 1000
next table: 22867
cur table: 20129
epoch: 1000
next table: 20302
cur table: 22867
epoch: 1000
next table: 2866
cur table: 2831
epoch: 1000
next table: 16284
cur table: 20302
epoch: 1000
next table: 20090
cur table: 16284
epoch: 1000
next table: 2766
cur table: 2866
epoch: 1000
next table: 22357
cur table: 20090
epoch: 1000
next table: 21963
cur table: 22357
epoch: 1000
next table: 2803
cur table: 2766
epoch: 1000
next table: 21565
cur table: 21963
epoch: 1000
next table: 17693
cur table: 21565
epoch: 1000
next table: 2754
cur table: 2803
epoch: 1000
next table: 20697
cur table: 17693
epoch: 1000
next table: 20794
cur table: 20697
epoch: 1000
next table: 3044
cur table: 2754
epoch: 1000
next table: 21498
cur table: 20794
epoch: 1000
next table: 17288
cur table: 21498
epoch: 1000
next table: 2918
cur table: 3044
epoch: 1000
next table: 21013
cur table: 17288
epoch: 1000
next table: 19924
cur table: 21013
epoch: 1000
next table: 2854
cur table: 2918
epoch: 1000
next table: 22731
cur table: 19924
epoch: 1000
next table: 19295
cur table: 22731
epoch: 1000
next table: 2869
cur table: 2854
epoch: 1000
next table: 17592
cur table: 19295
epoch: 1000
next table: 21720
cur table: 17592
epoch: 1000
next table: 2683
cur table: 2869
epoch: 1000
next table: 22961
cur table: 21720
Heartbeat CPU 0 instructions: 60000002 cycles: 28860596 heartbeat IPC: 0.919465 cumulative IPC: 0.919465 (Simulation time: 0 hr 17 min 53 sec) 
epoch: 1000
next table: 2519
cur table: 2683
epoch: 1000
next table: 24780
cur table: 22961
epoch: 1000
next table: 20589
cur table: 24780
epoch: 1000
next table: 2432
cur table: 2519
epoch: 1000
next table: 24533
cur table: 20589
epoch: 1000
next table: 25050
cur table: 24533
epoch: 1000
next table: 2718
cur table: 2432
epoch: 1000
next table: 24980
cur table: 25050
epoch: 1000
next table: 2410
cur table: 2718
epoch: 1000
next table: 21867
cur table: 24980
epoch: 1000
next table: 23942
cur table: 21867
epoch: 1000
next table: 2731
cur table: 2410
epoch: 1000
next table: 26099
cur table: 23942
epoch: 1000
next table: 23229
cur table: 26099
epoch: 1000
next table: 2760
cur table: 2731
epoch: 1000
next table: 20194
cur table: 23229
epoch: 1000
next table: 2574
cur table: 2760
epoch: 1000
next table: 22265
cur table: 20194
epoch: 1000
next table: 23269
cur table: 22265
epoch: 1000
next table: 2445
cur table: 2574
epoch: 1000
next table: 25573
cur table: 23269
epoch: 1000
next table: 23461
cur table: 25573
epoch: 1000
next table: 2531
cur table: 2445
epoch: 1000
next table: 21491
cur table: 23461
epoch: 1000
next table: 2751
cur table: 2531
epoch: 1000
next table: 23898
cur table: 21491
epoch: 1000
next table: 24224
cur table: 23898
epoch: 1000
next table: 2640
cur table: 2751
epoch: 1000
next table: 23890
cur table: 24224
epoch: 1000
next table: 19624
cur table: 23890
epoch: 1000
next table: 2746
cur table: 2640
epoch: 1000
next table: 22845
cur table: 19624
epoch: 1000
next table: 23298
cur table: 22845
epoch: 1000
next table: 2660
cur table: 2746
epoch: 1000
next table: 22721
cur table: 23298
epoch: 1000
next table: 2664
cur table: 2660
epoch: 1000
next table: 19611
cur table: 22721
epoch: 1000
next table: 22878
cur table: 19611
epoch: 1000
next table: 2481
cur table: 2664
epoch: 1000
next table: 22925
cur table: 22878
epoch: 1000
next table: 22735
cur table: 22925
epoch: 1000
next table: 2615
cur table: 2481
epoch: 1000
next table: 19269
cur table: 22735
epoch: 1000
next table: 22405
cur table: 19269
epoch: 1000
next table: 2897
cur table: 2615
epoch: 1000
next table: 21546
cur table: 22405
epoch: 1000
next table: 21153
cur table: 21546
epoch: 1000
next table: 2768
cur table: 2897
epoch: 1000
next table: 22767
cur table: 21153
epoch: 1000
next table: 2810
cur table: 2768
epoch: 1000
next table: 19288
cur table: 22767
epoch: 1000
next table: 21863
cur table: 19288
epoch: 1000
next table: 2848
cur table: 2810
epoch: 1000
next table: 22890
cur table: 21863
epoch: 1000
next table: 19655
cur table: 22890
epoch: 1000
next table: 2751
cur table: 2848
epoch: 1000
next table: 17461
cur table: 19655
epoch: 1000
next table: 20941
cur table: 17461
epoch: 1000
next table: 2683
cur table: 2751
epoch: 1000
next table: 22434
cur table: 20941
epoch: 1000
next table: 20756
cur table: 22434
epoch: 1000
next table: 2796
cur table: 2683
epoch: 1000
next table: 20909
cur table: 20756
epoch: 1000
next table: 17409
cur table: 20909
epoch: 1000
next table: 2937
cur table: 2796
epoch: 1000
next table: 20856
cur table: 17409
epoch: 1000
next table: 20653
cur table: 20856
epoch: 1000
next table: 2862
cur table: 2937
epoch: 1000
next table: 20712
cur table: 20653
epoch: 1000
next table: 21595
cur table: 20712
epoch: 1000
next table: 3020
cur table: 2862
epoch: 1000
next table: 16762
cur table: 21595
epoch: 1000
next table: 20596
cur table: 16762
epoch: 1000
next table: 2920
cur table: 3020
Heartbeat CPU 0 instructions: 70000003 cycles: 39789803 heartbeat IPC: 0.91498 cumulative IPC: 0.917217 (Simulation time: 0 hr 20 min 35 sec) 
epoch: 1000
next table: 21146
cur table: 20596
epoch: 1000
next table: 22335
cur table: 21146
epoch: 1000
next table: 2805
cur table: 2920
epoch: 1000
next table: 18684
cur table: 22335
epoch: 1000
next table: 21722
cur table: 18684
epoch: 1000
next table: 2550
cur table: 2805
epoch: 1000
next table: 22836
cur table: 21722
epoch: 1000
next table: 2549
cur table: 2550
epoch: 1000
next table: 23893
cur table: 22836
epoch: 1000
next table: 23921
cur table: 23893
epoch: 1000
next table: 2670
cur table: 2549
epoch: 1000
next table: 20223
cur table: 23921
epoch: 1000
next table: 22997
cur table: 20223
epoch: 1000
next table: 2724
cur table: 2670
epoch: 1000
next table: 23705
cur table: 22997
epoch: 1000
next table: 2612
cur table: 2724
epoch: 1000
next table: 23827
cur table: 23705
epoch: 1000
next table: 19872
cur table: 23827
epoch: 1000
next table: 2653
cur table: 2612
epoch: 1000
next table: 22817
cur table: 19872
epoch: 1000
next table: 24780
cur table: 22817
epoch: 1000
next table: 2785
cur table: 2653
epoch: 1000
next table: 20753
cur table: 24780
epoch: 1000
next table: 17688
cur table: 20753
epoch: 1000
next table: 2662
cur table: 2785
epoch: 1000
next table: 22786
cur table: 17688
epoch: 1000
next table: 22925
cur table: 22786
epoch: 1000
next table: 2525
cur table: 2662
epoch: 1000
next table: 21760
cur table: 22925
epoch: 1000
next table: 2732
cur table: 2525
epoch: 1000
next table: 22578
cur table: 21760
epoch: 1000
next table: 17030
cur table: 22578
epoch: 1000
next table: 3010
cur table: 2732
epoch: 1000
next table: 22442
cur table: 17030
epoch: 1000
next table: 20917
cur table: 22442
epoch: 1000
next table: 2795
cur table: 3010
epoch: 1000
next table: 20806
cur table: 20917
epoch: 1000
next table: 16281
cur table: 20806
epoch: 1000
next table: 3008
cur table: 2795
epoch: 1000
next table: 20783
cur table: 16281
epoch: 1000
next table: 20797
cur table: 20783
epoch: 1000
next table: 21321
cur table: 20797
epoch: 1000
next table: 2929
cur table: 3008
epoch: 1000
next table: 18877
cur table: 21321
epoch: 1000
next table: 15283
cur table: 18877
epoch: 1000
next table: 2810
cur table: 2929
epoch: 1000
next table: 22572
cur table: 15283
epoch: 1000
next table: 2663
cur table: 2810
epoch: 1000
next table: 21758
cur table: 22572
epoch: 1000
next table: 20084
cur table: 21758
epoch: 1000
next table: 2748
cur table: 2663
epoch: 1000
next table: 22614
cur table: 20084
epoch: 1000
next table: 19757
cur table: 22614
epoch: 1000
next table: 2853
cur table: 2748
epoch: 1000
next table: 22764
cur table: 19757
epoch: 1000
next table: 22919
cur table: 22764
epoch: 1000
next table: 2602
cur table: 2853
epoch: 1000
next table: 23910
cur table: 22919
epoch: 1000
next table: 2737
cur table: 2602
epoch: 1000
next table: 20876
cur table: 23910
epoch: 1000
next table: 25171
cur table: 20876
epoch: 1000
next table: 2516
cur table: 2737
epoch: 1000
next table: 25887
cur table: 25171
epoch: 1000
next table: 22840
cur table: 25887
epoch: 1000
next table: 2623
cur table: 2516
epoch: 1000
next table: 12957
cur table: 22840
epoch: 1000
next table: 1956
cur table: 2623
epoch: 1000
next table: 12103
cur table: 12957
epoch: 1000
next table: 1859
cur table: 1956
epoch: 1000
next table: 1702
cur table: 1859
epoch: 1000
next table: 11309
cur table: 12103
epoch: 1000
next table: 1897
cur table: 1702
epoch: 1000
next table: 13766
cur table: 11309
epoch: 1000
next table: 1905
cur table: 1897
epoch: 1000
next table: 12930
cur table: 13766
epoch: 1000
next table: 1839
cur table: 1905
epoch: 1000
next table: 13041
cur table: 12930
epoch: 1000
next table: 1887
cur table: 1839
epoch: 1000
next table: 12293
cur table: 13041
epoch: 1000
next table: 1890
cur table: 1887
epoch: 1000
next table: 12819
cur table: 12293
epoch: 1000
next table: 1974
cur table: 1890
epoch: 1000
next table: 12487
cur table: 12819
epoch: 1000
next table: 26685
cur table: 12487
epoch: 1000
next table: 2531
cur table: 1974
Heartbeat CPU 0 instructions: 80000002 cycles: 50867769 heartbeat IPC: 0.902693 cumulative IPC: 0.912324 (Simulation time: 0 hr 23 min 1 sec) 
epoch: 1000
next table: 23395
cur table: 26685
epoch: 1000
next table: 2313
cur table: 2531
epoch: 1000
next table: 27150
cur table: 23395
epoch: 1000
next table: 2293
cur table: 2313
epoch: 1000
next table: 21915
cur table: 27150
epoch: 1000
next table: 25062
cur table: 21915
epoch: 1000
next table: 2423
cur table: 2293
epoch: 1000
next table: 25824
cur table: 25062
epoch: 1000
next table: 24247
cur table: 25824
epoch: 1000
next table: 2496
cur table: 2423
epoch: 1000
next table: 19754
cur table: 24247
epoch: 1000
next table: 2398
cur table: 2496
epoch: 1000
next table: 23614
cur table: 19754
epoch: 1000
next table: 25886
cur table: 23614
epoch: 1000
next table: 2466
cur table: 2398
epoch: 1000
next table: 23494
cur table: 25886
epoch: 1000
next table: 2456
cur table: 2466
epoch: 1000
next table: 23503
cur table: 23494
epoch: 1000
next table: 25396
cur table: 23503
epoch: 1000
next table: 2592
cur table: 2456
epoch: 1000
next table: 25342
cur table: 25396
epoch: 1000
next table: 2469
cur table: 2592
epoch: 1000
next table: 28911
cur table: 25342
epoch: 1000
next table: 21969
cur table: 28911
epoch: 1000
next table: 2480
cur table: 2469
epoch: 1000
next table: 27149
cur table: 21969
epoch: 1000
next table: 23400
cur table: 27149
epoch: 1000
next table: 2523
cur table: 2480
epoch: 1000
next table: 26119
cur table: 23400
epoch: 1000
next table: 2394
cur table: 2523
epoch: 1000
next table: 20114
cur table: 26119
epoch: 1000
next table: 23428
cur table: 20114
epoch: 1000
next table: 2593
cur table: 2394
epoch: 1000
next table: 24785
cur table: 23428
epoch: 1000
next table: 2471
cur table: 2593
epoch: 1000
next table: 25076
cur table: 24785
epoch: 1000
next table: 19720
cur table: 25076
epoch: 1000
next table: 2835
cur table: 2471
epoch: 1000
next table: 23067
cur table: 19720
epoch: 1000
next table: 22766
cur table: 23067
epoch: 1000
next table: 2767
cur table: 2835
epoch: 1000
next table: 22627
cur table: 22766
epoch: 1000
next table: 17740
cur table: 22627
epoch: 1000
next table: 2866
cur table: 2767
epoch: 1000
next table: 22849
cur table: 17740
epoch: 1000
next table: 20947
cur table: 22849
epoch: 1000
next table: 2895
cur table: 2866
epoch: 1000
next table: 22326
cur table: 20947
epoch: 1000
next table: 21962
cur table: 22326
epoch: 1000
next table: 2641
cur table: 2895
epoch: 1000
next table: 16682
cur table: 21962
epoch: 1000
next table: 2649
cur table: 2641
epoch: 1000
next table: 22695
cur table: 16682
epoch: 1000
next table: 21675
cur table: 22695
epoch: 1000
next table: 2695
cur table: 2649
epoch: 1000
next table: 22672
cur table: 21675
epoch: 1000
next table: 17043
cur table: 22672
epoch: 1000
next table: 3014
cur table: 2695
epoch: 1000
next table: 21484
cur table: 17043
epoch: 1000
next table: 20328
cur table: 21484
epoch: 1000
next table: 2737
cur table: 3014
epoch: 1000
next table: 22427
cur table: 20328
epoch: 1000
next table: 20689
cur table: 22427
epoch: 1000
next table: 2958
cur table: 2737
epoch: 1000
next table: 17421
cur table: 20689
epoch: 1000
next table: 21789
cur table: 17421
epoch: 1000
next table: 2912
cur table: 2958
epoch: 1000
next table: 19438
cur table: 21789
epoch: 1000
next table: 18937
cur table: 19438
epoch: 1000
next table: 2954
cur table: 2912
epoch: 1000
next table: 21585
cur table: 18937
epoch: 1000
next table: 16414
cur table: 21585
epoch: 1000
next table: 2621
cur table: 2954
epoch: 1000
next table: 22621
cur table: 16414
Heartbeat CPU 0 instructions: 90000003 cycles: 61793979 heartbeat IPC: 0.915231 cumulative IPC: 0.913049 (Simulation time: 0 hr 24 min 54 sec) 
epoch: 1000
next table: 18926
cur table: 22621
epoch: 1000
next table: 2796
cur table: 2621
epoch: 1000
next table: 22300
cur table: 18926
epoch: 1000
next table: 18481
cur table: 22300
epoch: 1000
next table: 3003
cur table: 2796
epoch: 1000
next table: 18796
cur table: 18481
epoch: 1000
next table: 19923
cur table: 18796
epoch: 1000
next table: 2953
cur table: 3003
epoch: 1000
next table: 21626
cur table: 19923
epoch: 1000
next table: 19634
cur table: 21626
epoch: 1000
next table: 3034
cur table: 2953
epoch: 1000
next table: 16421
cur table: 19634
epoch: 1000
next table: 21473
cur table: 16421
epoch: 1000
next table: 2959
cur table: 3034
epoch: 1000
next table: 19094
cur table: 21473
epoch: 1000
next table: 18558
cur table: 19094
epoch: 1000
next table: 2906
cur table: 2959
epoch: 1000
next table: 22199
cur table: 18558
epoch: 1000
next table: 15820
cur table: 22199
epoch: 1000
next table: 2745
cur table: 2906
epoch: 1000
next table: 21545
cur table: 15820
epoch: 1000
next table: 19850
cur table: 21545
epoch: 1000
next table: 2815
cur table: 2745
epoch: 1000
next table: 21612
cur table: 19850
epoch: 1000
next table: 19767
cur table: 21612
epoch: 1000
next table: 2997
cur table: 2815
epoch: 1000
next table: 17161
cur table: 19767
epoch: 1000
next table: 20011
cur table: 17161
epoch: 1000
next table: 2893
cur table: 2997
epoch: 1000
next table: 19671
cur table: 20011
epoch: 1000
next table: 20427
cur table: 19671
epoch: 1000
next table: 3191
cur table: 2893
epoch: 1000
next table: 20575
cur table: 20427
epoch: 1000
next table: 15557
cur table: 20575
epoch: 1000
next table: 20804
cur table: 15557
epoch: 1000
next table: 3076
cur table: 3191
epoch: 1000
next table: 18380
cur table: 20804
epoch: 1000
next table: 19714
cur table: 18380
epoch: 1000
next table: 2865
cur table: 3076
epoch: 1000
next table: 19677
cur table: 19714
epoch: 1000
next table: 2699
cur table: 2865
epoch: 1000
next table: 17259
cur table: 19677
epoch: 1000
next table: 21027
cur table: 17259
epoch: 1000
next table: 2885
cur table: 2699
epoch: 1000
next table: 21347
cur table: 21027
epoch: 1000
next table: 19800
cur table: 21347
epoch: 1000
next table: 2846
cur table: 2885
epoch: 1000
next table: 21918
cur table: 19800
epoch: 1000
next table: 16367
cur table: 21918
epoch: 1000
next table: 3033
cur table: 2846
epoch: 1000
next table: 19968
cur table: 16367
epoch: 1000
next table: 21591
cur table: 19968
epoch: 1000
next table: 2995
cur table: 3033
epoch: 1000
next table: 20326
cur table: 21591
epoch: 1000
next table: 21193
cur table: 20326
epoch: 1000
next table: 2888
cur table: 2995
epoch: 1000
next table: 17492
cur table: 21193
epoch: 1000
next table: 20916
cur table: 17492
epoch: 1000
next table: 19848
cur table: 20916
epoch: 1000
next table: 3019
cur table: 2888
epoch: 1000
next table: 21338
cur table: 19848
epoch: 1000
next table: 2568
cur table: 3019
epoch: 1000
next table: 19388
cur table: 21338
epoch: 1000
next table: 23279
cur table: 19388
epoch: 1000
next table: 2645
cur table: 2568
epoch: 1000
next table: 22833
cur table: 23279
epoch: 1000
next table: 22832
cur table: 22833
epoch: 1000
next table: 2464
cur table: 2645
epoch: 1000
next table: 23269
cur table: 22832
epoch: 1000
next table: 2750
cur table: 2464
epoch: 1000
next table: 21525
cur table: 23269
epoch: 1000
next table: 25044
cur table: 21525
epoch: 1000
next table: 2638
cur table: 2750
epoch: 1000
next table: 22968
cur table: 25044
epoch: 1000
next table: 23463
cur table: 22968
epoch: 1000
next table: 2723
cur table: 2638
epoch: 1000
next table: 22627
cur table: 23463
Heartbeat CPU 0 instructions: 100000000 cycles: 72718504 heartbeat IPC: 0.915371 cumulative IPC: 0.913512 (Simulation time: 0 hr 26 min 6 sec) 
Finished CPU 0 instructions: 50000002 cycles: 54733798 cumulative IPC: 0.913512 (Simulation time: 0 hr 26 min 6 sec) 

ChampSim completed all CPUs

Region of Interest Statistics

CPU 0 cumulative IPC: 0.913512 instructions: 50000002 cycles: 54733798
ITLB TOTAL     ACCESS:    6965054  HIT:    6965054  MISS:          0  HIT %:        100  MISS %:          0   MPKI: 0
ITLB LOAD TRANSLATION ACCESS:    6965054  HIT:    6965054  MISS:          0  HIT %:        100  MISS %:          0   MPKI: 0
ITLB PREFETCH  REQUESTED:          0  ISSUED:          0  USEFUL:          0  USELESS:          0
ITLB USEFUL LOAD PREFETCHES:          0 PREFETCH ISSUED TO LOWER LEVEL:          0  ACCURACY: -nan
ITLB TIMELY PREFETCHES:          0 LATE PREFETCHES: 0 DROPPED PREFETCHES: 0
ITLB PREFETCHES SAME FILL-ORIGIN LEVEL: 0 DIFFERENT FILL-ORIGIN LEVEL: 0
ITLB AVERAGE MISS LATENCY: -nan cycles
ITLB RQ	ACCESS:    8466181	FORWARD:          0	MERGED:    1501127	TO_CACHE:    6965054

Revised Interactions: positive negative neutral
ITLB_interactions 0 0 0 -nan -nan -nan
DTLB TOTAL     ACCESS:   14175207  HIT:   12241044  MISS:    1934163  HIT %:    86.3553  MISS %:    13.6447   MPKI: 38.6833
DTLB LOAD TRANSLATION ACCESS:   14175207  HIT:   12241044  MISS:    1934163  HIT %:    86.3553  MISS %:    13.6447   MPKI: 38.6833
DTLB PREFETCH  REQUESTED:          0  ISSUED:          0  USEFUL:          0  USELESS:          0
DTLB USEFUL LOAD PREFETCHES:          0 PREFETCH ISSUED TO LOWER LEVEL:          0  ACCURACY: -nan
DTLB TIMELY PREFETCHES:          0 LATE PREFETCHES: 0 DROPPED PREFETCHES: 0
DTLB PREFETCHES SAME FILL-ORIGIN LEVEL: 0 DIFFERENT FILL-ORIGIN LEVEL: 0
DTLB AVERAGE MISS LATENCY: 10.0161 cycles
DTLB RQ	ACCESS:   19817612	FORWARD:          0	MERGED:    5430427	TO_CACHE:   14387185

Revised Interactions: positive negative neutral
DTLB_interactions 0 0 0 -nan -nan -nan
STLB TOTAL     ACCESS:    1934163  HIT:    1931969  MISS:       2194  HIT %:    99.8866  MISS %:   0.113434   MPKI: 0.04388
STLB LOAD TRANSLATION ACCESS:    1934163  HIT:    1931969  MISS:       2194  HIT %:    99.8866  MISS %:   0.113434   MPKI: 0.04388
STLB PREFETCH  REQUESTED:          0  ISSUED:          0  USEFUL:          0  USELESS:          0
STLB USEFUL LOAD PREFETCHES:          0 PREFETCH ISSUED TO LOWER LEVEL:          0  ACCURACY: -nan
STLB TIMELY PREFETCHES:          0 LATE PREFETCHES: 0 DROPPED PREFETCHES: 0
STLB PREFETCHES SAME FILL-ORIGIN LEVEL: 0 DIFFERENT FILL-ORIGIN LEVEL: 0
STLB AVERAGE MISS LATENCY: 612.668 cycles
STLB RQ	ACCESS:    1934163	FORWARD:          0	MERGED:          0	TO_CACHE:    1934163

Revised Interactions: positive negative neutral
STLB_interactions 0 0 0 -nan -nan -nan
STLB Hit, L1D data hit: 0
STLB Hit, L2C data hit: 0
STLB Hit, LLC data hit: 0
STLB Hit, LLC data miss: 0
STLB STLB hints to L2: 0
L1D TOTAL     ACCESS:   19712091  HIT:   16038141  MISS:    3673950  HIT %:    81.3619  MISS %:    18.6381   MPKI: 73.479
L1D LOAD      ACCESS:   15705478  HIT:   12334822  MISS:    3370656  HIT %:    78.5383  MISS %:    21.4617   MPKI: 67.4131
L1D RFO       ACCESS:    4006613  HIT:    3703319  MISS:     303294  HIT %:    92.4302  MISS %:    7.56984   MPKI: 6.06588
L1D PREFETCH  REQUESTED:          0  ISSUED:          0  USEFUL:          0  USELESS:          0
L1D USEFUL LOAD PREFETCHES:          0 PREFETCH ISSUED TO LOWER LEVEL:          0  ACCURACY: -nan
L1D TIMELY PREFETCHES:          0 LATE PREFETCHES: 0 DROPPED PREFETCHES: 0
L1D PREFETCHES SAME FILL-ORIGIN LEVEL: 0 DIFFERENT FILL-ORIGIN LEVEL: 0
L1D AVERAGE MISS LATENCY: 24.2397 cycles
L1D RQ	ACCESS:   19464806	FORWARD:          0	MERGED:    3661323	TO_CACHE:   15791953
L1D WQ	ACCESS:    4052922	FORWARD:      11530	MERGED:      27263	TO_CACHE:    4025659

Revised Interactions: positive negative neutral
L1D_interactions 0 0 0 -nan -nan -nan
L1D UNIQUE REGIONS ACCESSED: 0
L1D REGIONS CONFLICTS: 0
L1D Cross Page Prefetch Requests: 0
L1D Same Page Prefetch Requests: 0
L1D ROI Sum of L1D PQ occupancy: 0
L1D PREFETCHES PUSHED FROM L2C: 0
L1I TOTAL     ACCESS:    7803895  HIT:    6503892  MISS:    1300003  HIT %:    83.3416  MISS %:    16.6584   MPKI: 26.0001
L1I LOAD      ACCESS:    7803895  HIT:    6503892  MISS:    1300003  HIT %:    83.3416  MISS %:    16.6584   MPKI: 26.0001
L1I PREFETCH  REQUESTED:          0  ISSUED:          0  USEFUL:          0  USELESS:          0
L1I USEFUL LOAD PREFETCHES:          0 PREFETCH ISSUED TO LOWER LEVEL:          0  ACCURACY: -nan
L1I TIMELY PREFETCHES:          0 LATE PREFETCHES: 0 DROPPED PREFETCHES: 0
L1I PREFETCHES SAME FILL-ORIGIN LEVEL: 0 DIFFERENT FILL-ORIGIN LEVEL: 0
L1I AVERAGE MISS LATENCY: 14.0726 cycles
L1I RQ	ACCESS:   11862229	FORWARD:          0	MERGED:    3396048	TO_CACHE:    8466181

Revised Interactions: positive negative neutral
L1I_interactions 0 0 0 -nan -nan -nan
BTB TOTAL     ACCESS:     281772  HIT:     263571  MISS:      18201  HIT %:    93.5405  MISS %:    6.45948   MPKI: 0.36402
BTB BRANCH_DIRECT_JUMP	ACCESS:      54526  HIT:      54521  MISS:          5
BTB BRANCH_INDIRECT	ACCESS:       9087  HIT:       9086  MISS:          1
BTB BRANCH_CONDITIONAL	ACCESS:     109107  HIT:     109095  MISS:         12
BTB BRANCH_DIRECT_CALL	ACCESS:      54526  HIT:      54521  MISS:          5
BTB BRANCH_INDIRECT_CALL	ACCESS:          0  HIT:          0  MISS:          0
BTB BRANCH_RETURN	ACCESS:      54526  HIT:      36348  MISS:      18178
BTB BRANCH_OTHER ACCESS:          0  HIT:          0  MISS:          0

L2C TOTAL     ACCESS:    8125881  HIT:    7876553  MISS:     249328  HIT %:    96.9317  MISS %:    3.06832   MPKI: 4.98656
L2C LOAD      ACCESS:    4670202  HIT:    4469217  MISS:     200985  HIT %:    95.6964  MISS %:    4.30356   MPKI: 4.0197
L2C DATA LOAD MPKI: 4.01214
L2C INSTRUCTION LOAD MPKI: 0.00756
L2C RFO       ACCESS:     303214  HIT:     270391  MISS:      32823  HIT %:     89.175  MISS %:     10.825   MPKI: 0.65646
L2C PREFETCH  ACCESS:    2824887  HIT:    2813100  MISS:      11787  HIT %:    99.5827  MISS %:   0.417256   MPKI: 0.23574
L2C DATA PREFETCH MPKI: 0.23574
L2C INSTRUCTION PREFETCH MPKI: 0
L2C WRITEBACK ACCESS:     324311  HIT:     323674  MISS:        637  HIT %:    99.8036  MISS %:   0.196416   MPKI: 0.01274
L2C LOAD TRANSLATION ACCESS:       3267  HIT:        171  MISS:       3096  HIT %:    5.23416  MISS %:    94.7658   MPKI: 0.06192
L2C PREFETCH  REQUESTED:    4146404  ISSUED:    3925557  USEFUL:      10788  USELESS:        993
L2C USEFUL LOAD PREFETCHES:      10788 PREFETCH ISSUED TO LOWER LEVEL:     553432  ACCURACY: 1.94929
L2C TIMELY PREFETCHES:      10788 LATE PREFETCHES: 582 DROPPED PREFETCHES: 0
L2C PREFETCHES SAME FILL-ORIGIN LEVEL: 12369 DIFFERENT FILL-ORIGIN LEVEL: 541063
L2C AVERAGE MISS LATENCY: 132.809 cycles
L2C RQ	ACCESS:    4977219	FORWARD:          0	MERGED:          0	TO_CACHE:    4976683
L2C WQ	ACCESS:     324311	FORWARD:        556	MERGED:          0	TO_CACHE:     324311
L2C PQ	ACCESS:    3925557	FORWARD:          0	MERGED:     507312	TO_CACHE:    3418225

Revised Interactions: positive negative neutral
L2C_interactions 9338 1840 1439 74.0113 14.5835 11.4052
L2C Instructions Evicting Data 350
L2C Translations Evicting Data 3079
L2C Data Evicting Data 241783
L2C Instructions Evicting Instructions 26
L2C Translations Evicting Instructions 3
L2C Data Evicting Instructions 345
L2C Instructions Evicting Translations 2
L2C Translations Evicting Translations 14
L2C Data Evicting Translations 3089
L2C Dense regions hint from L2: 0
PSCL5 TOTAL     ACCESS:       2194  HIT:       2194  MISS:          0  HIT %:        100  MISS %:          0   MPKI: 0
PSCL5 LOAD TRANSLATION ACCESS:       2194  HIT:       2194  MISS:          0  HIT %:        100  MISS %:          0   MPKI: 0
PSCL5 PREFETCH  REQUESTED:          0  ISSUED:          0  USEFUL:          0  USELESS:          0
PSCL5 USEFUL LOAD PREFETCHES:          0 PREFETCH ISSUED TO LOWER LEVEL:          0  ACCURACY: -nan
PSCL5 TIMELY PREFETCHES:          0 LATE PREFETCHES: 0 DROPPED PREFETCHES: 0
PSCL5 PREFETCHES SAME FILL-ORIGIN LEVEL: 0 DIFFERENT FILL-ORIGIN LEVEL: 0

Revised Interactions: positive negative neutral
PSCL5_interactions 0 0 0 -nan -nan -nan
PSCL4 TOTAL     ACCESS:       2194  HIT:       2194  MISS:          0  HIT %:        100  MISS %:          0   MPKI: 0
PSCL4 LOAD TRANSLATION ACCESS:       2194  HIT:       2194  MISS:          0  HIT %:        100  MISS %:          0   MPKI: 0
PSCL4 PREFETCH  REQUESTED:          0  ISSUED:          0  USEFUL:          0  USELESS:          0
PSCL4 USEFUL LOAD PREFETCHES:          0 PREFETCH ISSUED TO LOWER LEVEL:          0  ACCURACY: -nan
PSCL4 TIMELY PREFETCHES:          0 LATE PREFETCHES: 0 DROPPED PREFETCHES: 0
PSCL4 PREFETCHES SAME FILL-ORIGIN LEVEL: 0 DIFFERENT FILL-ORIGIN LEVEL: 0

Revised Interactions: positive negative neutral
PSCL4_interactions 0 0 0 -nan -nan -nan
PSCL3 TOTAL     ACCESS:       2194  HIT:       2194  MISS:          0  HIT %:        100  MISS %:          0   MPKI: 0
PSCL3 LOAD TRANSLATION ACCESS:       2194  HIT:       2194  MISS:          0  HIT %:        100  MISS %:          0   MPKI: 0
PSCL3 PREFETCH  REQUESTED:          0  ISSUED:          0  USEFUL:          0  USELESS:          0
PSCL3 USEFUL LOAD PREFETCHES:          0 PREFETCH ISSUED TO LOWER LEVEL:          0  ACCURACY: -nan
PSCL3 TIMELY PREFETCHES:          0 LATE PREFETCHES: 0 DROPPED PREFETCHES: 0
PSCL3 PREFETCHES SAME FILL-ORIGIN LEVEL: 0 DIFFERENT FILL-ORIGIN LEVEL: 0

Revised Interactions: positive negative neutral
PSCL3_interactions 0 0 0 -nan -nan -nan
PSCL2 TOTAL     ACCESS:       2194  HIT:       1117  MISS:       1077  HIT %:    50.9116  MISS %:    49.0884   MPKI: 0.02154
PSCL2 LOAD TRANSLATION ACCESS:       2194  HIT:       1117  MISS:       1077  HIT %:    50.9116  MISS %:    49.0884   MPKI: 0.02154
PSCL2 PREFETCH  REQUESTED:          0  ISSUED:          0  USEFUL:          0  USELESS:          0
PSCL2 USEFUL LOAD PREFETCHES:          0 PREFETCH ISSUED TO LOWER LEVEL:          0  ACCURACY: -nan
PSCL2 TIMELY PREFETCHES:          0 LATE PREFETCHES: 0 DROPPED PREFETCHES: 0
PSCL2 PREFETCHES SAME FILL-ORIGIN LEVEL: 0 DIFFERENT FILL-ORIGIN LEVEL: 0

Revised Interactions: positive negative neutral
PSCL2_interactions 0 0 0 -nan -nan -nan
LLC TOTAL     ACCESS:     810084  HIT:     670787  MISS:     139297  HIT %:    82.8046  MISS %:    17.1954   MPKI: 2.78594
LLC LOAD      ACCESS:     200396  HIT:     175532  MISS:      24864  HIT %:    87.5926  MISS %:    12.4074   MPKI: 0.49728
LLC RFO       ACCESS:      32612  HIT:       3186  MISS:      29426  HIT %:    9.76941  MISS %:    90.2306   MPKI: 0.58852
LLC PREFETCH  ACCESS:     540805  HIT:     456694  MISS:      84111  HIT %:    84.4471  MISS %:    15.5529   MPKI: 1.68222
LLC WRITEBACK ACCESS:      33175  HIT:      32654  MISS:        521  HIT %:    98.4295  MISS %:    1.57046   MPKI: 0.01042
LLC LOAD TRANSLATION ACCESS:       3096  HIT:       2721  MISS:        375  HIT %:    87.8876  MISS %:    12.1124   MPKI: 0.0075
LLC PREFETCH  REQUESTED:          0  ISSUED:          0  USEFUL:      75855  USELESS:       7768
LLC USEFUL LOAD PREFETCHES:      75855 PREFETCH ISSUED TO LOWER LEVEL:      87260  ACCURACY: 86.9299
LLC TIMELY PREFETCHES:      75855 LATE PREFETCHES: 3149 DROPPED PREFETCHES: 0
LLC PREFETCHES SAME FILL-ORIGIN LEVEL: 85242 DIFFERENT FILL-ORIGIN LEVEL: 0
LLC AVERAGE MISS LATENCY: 294.459 cycles
LLC RQ	ACCESS:     236322	FORWARD:          0	MERGED:          0	TO_CACHE:     236104
LLC WQ	ACCESS:      33175	FORWARD:        219	MERGED:          0	TO_CACHE:      33175
LLC PQ	ACCESS:     553432	FORWARD:          0	MERGED:       6078	TO_CACHE:     547353

Revised Interactions: positive negative neutral
LLC_interactions 51491 31794 2814 59.8044 36.9273 3.26833
LLC Dense regions hint to LLC: 0

RAW hits: 127930
Loads Generated: 19592737
Loads sent to L1D: 19464806
Stores Generated: 4053119
Stores sent to L1D: 4053121
Major fault: 0 Minor fault: 4534
Allocated PAGES: 4534
 All Calls: 6744998
 Critical Calls: 6744998
------------------
Depth Distribution
------------------
depth 0: 0
depth 1: 4990314
depth 2: 1994684
depth 3: 451560
depth 4: 93565
depth 5: 8927
depth 6: 665
depth 7: 13
depth 8: 2
depth 9: 0
depth 10: 0
depth 11: 0
depth 12: 0
depth 13: 0
depth 14: 0
depth 15: 0
depth 16: 0
depth 17: 0
depth 18: 0
depth 19: 0
depth 20: 0
depth 21: 0
depth 22: 0
depth 23: 0
depth 24: 0
depth 25: 0
depth 26: 0
depth 27: 0
depth 28: 0
depth 29: 0
Total: 7539730
-----------------------------
-----------------------------
	Captured at Filter
-----------------------------
depth 0: 0
depth 1: 1253522
depth 2: 679555
depth 3: 282745
depth 4: 68546
depth 5: 15287
depth 6: 987
depth 7: 19
depth 8: 0
depth 9: 0
depth 10: 0
depth 11: 0
depth 12: 0
depth 13: 0
depth 14: 0
depth 15: 0
depth 16: 0
depth 17: 0
depth 18: 0
depth 19: 0
depth 20: 0
depth 21: 0
depth 22: 0
depth 23: 0
depth 24: 0
depth 25: 0
depth 26: 0
depth 27: 0
depth 28: 0
depth 29: 0
-----------------------------
-----------------------------
		Lost at Page
-----------------------------
depth 0: 0
depth 1: 1232957
depth 2: 231512
depth 3: 34472
depth 4: 6284
depth 5: 1717
depth 6: 180
depth 7: 2
depth 8: 0
depth 9: 0
depth 10: 0
depth 11: 0
depth 12: 0
depth 13: 0
depth 14: 0
depth 15: 0
depth 16: 0
depth 17: 0
depth 18: 0
depth 19: 0
depth 20: 0
depth 21: 0
depth 22: 0
depth 23: 0
depth 24: 0
depth 25: 0
depth 26: 0
depth 27: 0
depth 28: 0
depth 29: 0
-----------------------------
-----------------------------
	Lost due to PQ Size
-----------------------------
807779
-----------------------------
ST read accesses: 3368466
ST write accesses: 1734
PT read accesses: 46140984
PT write accesses: 3978852
FILTER read accesses: 8797102
FILTER write accesses: 521973
GHR read accesses: 5617576
GHR write accesses: 812194
GHR counter read accesses: 40866136
GHR counter write accesses: 3653974
ST tag read accesses: 1295814246
ST tag write accesses: 270074990

DRAM Statistics
 CHANNEL 0
 RQ ROW_BUFFER_HIT:      71300  ROW_BUFFER_MISS:      67476
 DBUS_CONGESTED:        161
 WQ ROW_BUFFER_HIT:       8061  ROW_BUFFER_MISS:      21706  FULL:          0

 AVG_CONGESTED_CYCLE: 4
 All warmup complete: 2
Channel 0 Bank busy for read cycles: 0
Channel 0 Bank busy for write cycles: 0
Channel 0
Rank 0
0banks busy for read cycles: 43099135
0banks busy for write cycles: 14706
1banks busy for read cycles: 5759939
1banks busy for write cycles: 2118288
2banks busy for read cycles: 1465610
2banks busy for write cycles: 530404
3banks busy for read cycles: 601426
3banks busy for write cycles: 244115
4banks busy for read cycles: 261768
4banks busy for write cycles: 141390
5banks busy for read cycles: 139886
5banks busy for write cycles: 74323
6banks busy for read cycles: 93109
6banks busy for write cycles: 39828
7banks busy for read cycles: 67559
7banks busy for write cycles: 22559
8banks busy for read cycles: 51797
8banks busy for write cycles: 7957

CPU 0 Branch Prediction Accuracy: 99.9872% MPKI: 0.00114 Average ROB Occupancy at Mispredict: 37.3509
Branch types
NOT_BRANCH: 49554269 99.1085%
BRANCH_DIRECT_JUMP: 54526 0.109052%
BRANCH_INDIRECT: 9087 0.018174%
BRANCH_CONDITIONAL: 272740 0.54548%
BRANCH_DIRECT_CALL: 54526 0.109052%
BRANCH_INDIRECT_CALL: 0 0%
BRANCH_RETURN: 54526 0.109052%
BRANCH_OTHER: 0 0%

@sumon_overall_L1D         0         0         0         0         0         0         0
@Sumon_Early_by_class_L1D         0         0         0         0
@Sumon_Late_by_class_L1D         0         0         0         0

@Sumon_Early_by_cycle_L1D         0         0         0         0         0         0         0         0         0         0         0         0
@Sumon_Late_by_cycle_L1D         0         0         0         0         0         0
@Sumon_Early_stream_L1D         0         0         0         0         0         0         0         0         0         0         0         0
@Sumon_Early_CS_L1D         0         0         0         0         0         0         0         0         0         0         0         0
@Sumon_Early_CPLX_L1D         0         0         0         0         0         0         0         0         0         0         0         0
@Sumon_Late_stream_L1D         0         0         0         0         0         0
@Sumon_Late_CS_L1D         0         0         0         0         0         0
@Sumon_Late_CPLX_L1D         0         0         0         0         0         0
@sumon_overall_L2C     10788       582         0       993     11787   3925557   4146404
@Sumon_Early_by_class_L2C         0         0         0         0
@Sumon_Late_by_class_L2C         0         0         0         0

@Sumon_Early_by_cycle_L2C       689       102        11         3         1         2         2        68       779      8596       499        36
@Sumon_Late_by_cycle_L2C       205       308        52         3        14         0
@Sumon_Early_stream_L2C         0         0         0         0         0         0         0         0         0         0         0         0
@Sumon_Early_CS_L2C         0         0         0         0         0         0         0         0         0         0         0         0
@Sumon_Early_CPLX_L2C         0         0         0         0         0         0         0         0         0         0         0         0
@Sumon_Late_stream_L2C         0         0         0         0         0         0
@Sumon_Late_CS_L2C         0         0         0         0         0         0
@Sumon_Late_CPLX_L2C         0         0         0         0         0         0
DRAM PAGES: 1048576
Allocated PAGES: 4534
