Initialize SIGNATURE TABLE
ST_SET: 1
ST_WAY: 256
ST_TAG_BIT: 16
ST_TAG_MASK: ffff

Initialize PATTERN TABLE
PT_SET: 512
PT_WAY: 4
SIG_DELTA_BIT: 7
C_SIG_BIT: 4
C_DELTA_BIT: 4

Initialize PREFETCH FILTER
FILTER_SET: 1024

*** ChampSim Multicore Out-of-Order Simulator ***

Warmup Instructions: 50000000
Simulation Instructions: 50000000
Number of CPUs: 1
LLC sets: 2048
LLC ways: 16
Off-chip DRAM Size: 4096 MB Channels: 1 Width: 64-bit Data Rate: 6400 MT/s
CPU 0 runs ../../biswa/SPEC2017Traces/619.lbm_s-4268B.champsimtrace.xz
.xz
CPU 0 Bimodal branch predictor
BTB has LRU replacement policy
ITLB has LRU replacement policy
DTLB has LRU replacement policy
STLB has LRU replacement policy
L1I has LRU replacement policy
L1D has LRU replacement policy
ST_WAYS: 256
PT_SETS: 512
Initialize DRRIP state for L2C
Initialize DRRIP state for LLC
epoch: 1000
next table: 2940
cur table: 13369
epoch: 1000
next table: 2703
cur table: 2940
epoch: 1000
next table: 2663
cur table: 2703
epoch: 1000
next table: 2640
cur table: 2663
epoch: 1000
next table: 2625
cur table: 2640
epoch: 1000
next table: 2594
cur table: 2625
epoch: 1000
next table: 2616
cur table: 2594
epoch: 1000
next table: 2634
cur table: 2616
epoch: 1000
next table: 2639
cur table: 2634
epoch: 1000
next table: 2659
cur table: 2639
epoch: 1000
next table: 2655
cur table: 2659
epoch: 1000
next table: 2640
cur table: 2655
epoch: 1000
next table: 2605
cur table: 2640
epoch: 1000
next table: 2546
cur table: 2605
epoch: 1000
next table: 2568
cur table: 2546
epoch: 1000
next table: 2616
cur table: 2568
epoch: 1000
next table: 2628
cur table: 2616
epoch: 1000
next table: 2635
cur table: 2628
epoch: 1000
next table: 2643
cur table: 2635
epoch: 1000
next table: 2651
cur table: 2643
epoch: 1000
next table: 2637
cur table: 2651
epoch: 1000
next table: 2634
cur table: 2637
epoch: 1000
next table: 2634
cur table: 2634
epoch: 1000
next table: 2587
cur table: 2634
epoch: 1000
next table: 2631
cur table: 2587
epoch: 1000
next table: 2464
cur table: 32944
epoch: 1000
next table: 2590
cur table: 2631
epoch: 1000
next table: 2029
cur table: 2464
epoch: 1000
next table: 2607
cur table: 2590
epoch: 1000
next table: 2649
cur table: 2607
epoch: 1000
next table: 2092
cur table: 2029
epoch: 1000
next table: 2653
cur table: 2649
epoch: 1000
next table: 1957
cur table: 2092
epoch: 1000
next table: 2660
cur table: 2653
epoch: 1000
next table: 1997
cur table: 1957
epoch: 1000
next table: 2646
cur table: 2660
epoch: 1000
next table: 1954
cur table: 1997
epoch: 1000
next table: 2645
cur table: 2646
epoch: 1000
next table: 1959
cur table: 1954
epoch: 1000
next table: 2631
cur table: 2645
epoch: 1000
next table: 1955
cur table: 1959
epoch: 1000
next table: 2650
cur table: 2631
epoch: 1000
next table: 1946
cur table: 1955
epoch: 1000
next table: 2648
cur table: 2650
epoch: 1000
next table: 1953
cur table: 1946
epoch: 1000
next table: 2656
cur table: 2648
epoch: 1000
next table: 1935
cur table: 1953
epoch: 1000
next table: 2661
cur table: 2656
epoch: 1000
next table: 1944
cur table: 1935
epoch: 1000
next table: 2663
cur table: 2661
epoch: 1000
next table: 1942
cur table: 1944
epoch: 1000
next table: 2625
cur table: 2663
epoch: 1000
next table: 1976
cur table: 1942
epoch: 1000
next table: 2587
cur table: 2625
epoch: 1000
next table: 1968
cur table: 1976
epoch: 1000
next table: 2601
cur table: 2587
epoch: 1000
next table: 2016
cur table: 1968
epoch: 1000
next table: 2582
cur table: 2601
epoch: 1000
next table: 1994
cur table: 2016
epoch: 1000
next table: 2626
cur table: 2582
epoch: 1000
next table: 1979
cur table: 1994
epoch: 1000
next table: 2639
cur table: 2626
epoch: 1000
next table: 1951
cur table: 1979
epoch: 1000
next table: 2628
cur table: 2639
epoch: 1000
next table: 1983
cur table: 1951
epoch: 1000
next table: 2630
cur table: 2628
epoch: 1000
next table: 1956
cur table: 1983
epoch: 1000
next table: 2615
cur table: 2630
epoch: 1000
next table: 1979
cur table: 1956
epoch: 1000
next table: 2641
cur table: 2615
epoch: 1000
next table: 1996
cur table: 1979
epoch: 1000
next table: 2585
cur table: 2641
epoch: 1000
next table: 1991
cur table: 1996
epoch: 1000
next table: 2592
cur table: 2585
epoch: 1000
next table: 2018
cur table: 1991
epoch: 1000
next table: 2617
cur table: 2592
epoch: 1000
next table: 1960
cur table: 2018
epoch: 1000
next table: 2652
cur table: 2617
epoch: 1000
next table: 1980
cur table: 1960
epoch: 1000
next table: 2651
cur table: 2652
epoch: 1000
next table: 1955
cur table: 1980
epoch: 1000
next table: 2656
cur table: 2651
epoch: 1000
next table: 1977
cur table: 1955
epoch: 1000
next table: 2656
cur table: 2656
epoch: 1000
next table: 1977
cur table: 1977
epoch: 1000
next table: 2644
cur table: 2656
epoch: 1000
next table: 1974
cur table: 1977
epoch: 1000
next table: 2636
cur table: 2644
epoch: 1000
next table: 1975
cur table: 1974
epoch: 1000
next table: 2653
cur table: 2636
epoch: 1000
next table: 1955
cur table: 1975
epoch: 1000
next table: 2664
cur table: 2653
epoch: 1000
next table: 1969
cur table: 1955
epoch: 1000
next table: 2644
cur table: 2664
epoch: 1000
next table: 1962
cur table: 1969
epoch: 1000
next table: 2656
cur table: 2644
epoch: 1000
next table: 1983
cur table: 1962
epoch: 1000
next table: 2633
cur table: 2656
epoch: 1000
next table: 1963
cur table: 1983
epoch: 1000
next table: 2623
cur table: 2633
epoch: 1000
next table: 1990
cur table: 1963
epoch: 1000
next table: 2612
cur table: 2623
epoch: 1000
next table: 1989
cur table: 1990
epoch: 1000
next table: 2628
cur table: 2612
epoch: 1000
next table: 1974
cur table: 1989
epoch: 1000
next table: 2639
cur table: 2628
epoch: 1000
next table: 1971
cur table: 1974
epoch: 1000
next table: 2630
cur table: 2639
epoch: 1000
next table: 1948
cur table: 1971
epoch: 1000
next table: 2647
cur table: 2630
epoch: 1000
next table: 1968
cur table: 1948
epoch: 1000
next table: 2652
cur table: 2647
epoch: 1000
next table: 1927
cur table: 1968
epoch: 1000
next table: 2658
cur table: 2652
epoch: 1000
next table: 1979
cur table: 1927
epoch: 1000
next table: 2639
cur table: 2658
epoch: 1000
next table: 1935
cur table: 1979
epoch: 1000
next table: 2655
cur table: 2639
epoch: 1000
next table: 1958
cur table: 1935
epoch: 1000
next table: 2655
cur table: 2655
epoch: 1000
next table: 1917
cur table: 1958
epoch: 1000
next table: 2661
cur table: 2655
epoch: 1000
next table: 1971
cur table: 1917
epoch: 1000
next table: 2661
cur table: 2661
epoch: 1000
next table: 1921
cur table: 1971
epoch: 1000
next table: 2644
cur table: 2661
epoch: 1000
next table: 1962
cur table: 1921
epoch: 1000
next table: 2641
cur table: 2644
epoch: 1000
next table: 1942
cur table: 1962
epoch: 1000
next table: 2641
cur table: 2641
epoch: 1000
next table: 1951
cur table: 1942
epoch: 1000
next table: 2655
cur table: 2641
epoch: 1000
next table: 1936
cur table: 1951
epoch: 1000
next table: 2659
cur table: 2655
epoch: 1000
next table: 1950
cur table: 1936
epoch: 1000
next table: 2659
cur table: 2659
epoch: 1000
next table: 1945
cur table: 1950
epoch: 1000
next table: 2663
cur table: 2659
epoch: 1000
next table: 1951
cur table: 1945
epoch: 1000
next table: 2661
cur table: 2663
epoch: 1000
next table: 1959
cur table: 1951
epoch: 1000
next table: 2661
cur table: 2661
epoch: 1000
next table: 1954
cur table: 1959
epoch: 1000
next table: 2661
cur table: 2661
epoch: 1000
next table: 1954
cur table: 1954
epoch: 1000
next table: 2661
cur table: 2661
epoch: 1000
next table: 1963
cur table: 1954
epoch: 1000
next table: 2662
cur table: 2661
epoch: 1000
next table: 1955
cur table: 1963
epoch: 1000
next table: 2665
cur table: 2662
epoch: 1000
next table: 1961
cur table: 1955
epoch: 1000
next table: 2661
cur table: 2665
epoch: 1000
next table: 1956
cur table: 1961
epoch: 1000
next table: 2665
cur table: 2661
epoch: 1000
next table: 1955
cur table: 1956
epoch: 1000
next table: 2662
cur table: 2665
epoch: 1000
next table: 1959
cur table: 1955
epoch: 1000
next table: 2666
cur table: 2662
epoch: 1000
next table: 1955
cur table: 1959
epoch: 1000
next table: 2664
cur table: 2666
epoch: 1000
next table: 1963
cur table: 1955
epoch: 1000
next table: 2665
cur table: 2664
epoch: 1000
next table: 1966
cur table: 1963
epoch: 1000
next table: 2649
cur table: 2665
epoch: 1000
next table: 1983
cur table: 1966
epoch: 1000
next table: 2639
cur table: 2649
epoch: 1000
next table: 1991
cur table: 1983
epoch: 1000
next table: 2602
cur table: 2639
epoch: 1000
next table: 2014
cur table: 1991
epoch: 1000
next table: 2572
cur table: 2602
epoch: 1000
next table: 2552
cur table: 2572
epoch: 1000
next table: 2014
cur table: 2014
epoch: 1000
next table: 2572
cur table: 2552
epoch: 1000
next table: 2022
cur table: 2014
epoch: 1000
next table: 2581
cur table: 2572
epoch: 1000
next table: 1988
cur table: 2022
epoch: 1000
next table: 2612
cur table: 2581
epoch: 1000
next table: 1988
cur table: 1988
epoch: 1000
next table: 2599
cur table: 2612
epoch: 1000
next table: 1982
cur table: 1988
epoch: 1000
next table: 2583
cur table: 2599
epoch: 1000
next table: 2010
cur table: 1982
epoch: 1000
next table: 2633
cur table: 2583
epoch: 1000
next table: 1938
cur table: 2010
epoch: 1000
next table: 2646
cur table: 2633
epoch: 1000
next table: 1956
cur table: 1938
epoch: 1000
next table: 2651
cur table: 2646
epoch: 1000
next table: 1937
cur table: 1956
epoch: 1000
next table: 2649
cur table: 2651
epoch: 1000
next table: 1968
cur table: 1937
epoch: 1000
next table: 2641
cur table: 2649
epoch: 1000
next table: 1946
cur table: 1968
epoch: 1000
next table: 2646
cur table: 2641
epoch: 1000
next table: 1965
cur table: 1946
epoch: 1000
next table: 2646
cur table: 2646
epoch: 1000
next table: 1952
cur table: 1965
epoch: 1000
next table: 2641
cur table: 2646
epoch: 1000
next table: 1965
cur table: 1952
epoch: 1000
next table: 2641
cur table: 2641
epoch: 1000
next table: 1948
cur table: 1965
epoch: 1000
next table: 2605
cur table: 2641
epoch: 1000
next table: 1968
cur table: 1948
epoch: 1000
next table: 2642
cur table: 2605
epoch: 1000
next table: 1959
cur table: 1968
epoch: 1000
next table: 2635
cur table: 2642
epoch: 1000
next table: 1957
cur table: 1959
epoch: 1000
next table: 2625
cur table: 2635
epoch: 1000
next table: 1948
cur table: 1957
epoch: 1000
next table: 2614
cur table: 2625
epoch: 1000
next table: 1998
cur table: 1948
epoch: 1000
next table: 2548
cur table: 2614
epoch: 1000
next table: 2012
cur table: 1998
epoch: 1000
next table: 2600
cur table: 2548
epoch: 1000
next table: 1960
cur table: 2012
epoch: 1000
next table: 2618
cur table: 2600
epoch: 1000
next table: 1964
cur table: 1960
epoch: 1000
next table: 2650
cur table: 2618
epoch: 1000
next table: 1960
cur table: 1964
epoch: 1000
next table: 2608
cur table: 2650
epoch: 1000
next table: 2012
cur table: 1960
epoch: 1000
next table: 2598
cur table: 2608
epoch: 1000
next table: 2000
cur table: 2012
epoch: 1000
next table: 2572
cur table: 2598
epoch: 1000
next table: 2001
cur table: 2000
epoch: 1000
next table: 2592
cur table: 2572
epoch: 1000
next table: 2055
cur table: 2001
epoch: 1000
next table: 2513
cur table: 2592
epoch: 1000
next table: 2056
cur table: 2055
epoch: 1000
next table: 2508
cur table: 2513
epoch: 1000
next table: 2013
cur table: 2056
epoch: 1000
next table: 2586
cur table: 2508
epoch: 1000
next table: 1992
cur table: 2013
epoch: 1000
next table: 2638
cur table: 2586
epoch: 1000
next table: 2636
cur table: 2638
epoch: 1000
next table: 1965
cur table: 1992
epoch: 1000
next table: 2643
cur table: 2636
epoch: 1000
next table: 1983
cur table: 1965
epoch: 1000
next table: 2655
cur table: 2643
epoch: 1000
next table: 1960
cur table: 1983
epoch: 1000
next table: 2620
cur table: 2655
epoch: 1000
next table: 1988
cur table: 1960
epoch: 1000
next table: 2622
cur table: 2620
epoch: 1000
next table: 1970
cur table: 1988
epoch: 1000
next table: 2635
cur table: 2622
epoch: 1000
next table: 1971
cur table: 1970
epoch: 1000
next table: 2654
cur table: 2635
epoch: 1000
next table: 1945
cur table: 1971
epoch: 1000
next table: 2660
cur table: 2654
epoch: 1000
next table: 1968
cur table: 1945
epoch: 1000
next table: 2644
cur table: 2660
epoch: 1000
next table: 1936
cur table: 1968
epoch: 1000
next table: 2661
cur table: 2644
epoch: 1000
next table: 1946
cur table: 1936
epoch: 1000
next table: 2649
cur table: 2661
epoch: 1000
next table: 1927
cur table: 1946
epoch: 1000
next table: 2654
cur table: 2649
epoch: 1000
next table: 1922
cur table: 1927
epoch: 1000
next table: 2659
cur table: 2654
epoch: 1000
next table: 1920
cur table: 1922
epoch: 1000
next table: 2660
cur table: 2659
epoch: 1000
next table: 1909
cur table: 1920
epoch: 1000
next table: 2655
cur table: 2660
epoch: 1000
next table: 1916
cur table: 1909
epoch: 1000
next table: 2660
cur table: 2655
epoch: 1000
next table: 1897
cur table: 1916
epoch: 1000
next table: 2659
cur table: 2660
epoch: 1000
next table: 1906
cur table: 1897
epoch: 1000
next table: 2649
cur table: 2659
epoch: 1000
next table: 1901
cur table: 1906
epoch: 1000
next table: 2659
cur table: 2649
epoch: 1000
next table: 1900
cur table: 1901
epoch: 1000
next table: 2651
cur table: 2659
epoch: 1000
next table: 1986
cur table: 1900
epoch: 1000
next table: 2654
cur table: 2651
epoch: 1000
next table: 1999
cur table: 1986
epoch: 1000
next table: 2650
cur table: 2654
epoch: 1000
next table: 1990
cur table: 1999
epoch: 1000
next table: 2660
cur table: 2650
epoch: 1000
next table: 2003
cur table: 1990
epoch: 1000
next table: 2666
cur table: 2660
epoch: 1000
next table: 1910
cur table: 2003
epoch: 1000
next table: 2664
cur table: 2666
epoch: 1000
next table: 1899
cur table: 1910
epoch: 1000
next table: 2658
cur table: 2664
epoch: 1000
next table: 1921
cur table: 1899
epoch: 1000
next table: 2665
cur table: 2658
epoch: 1000
next table: 1900
cur table: 1921
epoch: 1000
next table: 2664
cur table: 2665
epoch: 1000
next table: 1945
cur table: 1900
epoch: 1000
next table: 2652
cur table: 2664
epoch: 1000
next table: 1918
cur table: 1945
epoch: 1000
next table: 2637
cur table: 2652
epoch: 1000
next table: 1958
cur table: 1918
epoch: 1000
next table: 2646
cur table: 2637
epoch: 1000
next table: 1965
cur table: 1958
epoch: 1000
next table: 2651
cur table: 2646
epoch: 1000
next table: 1950
cur table: 1965
epoch: 1000
next table: 2634
cur table: 2651
epoch: 1000
next table: 1946
cur table: 1950
epoch: 1000
next table: 2646
cur table: 2634
epoch: 1000
next table: 1971
cur table: 1946
epoch: 1000
next table: 2638
cur table: 2646
epoch: 1000
next table: 1964
cur table: 1971
epoch: 1000
next table: 2652
cur table: 2638
epoch: 1000
next table: 1958
cur table: 1964
epoch: 1000
next table: 2656
cur table: 2652
epoch: 1000
next table: 1954
cur table: 1958
epoch: 1000
next table: 2646
cur table: 2656
epoch: 1000
next table: 1952
cur table: 1954
epoch: 1000
next table: 2663
cur table: 2646
epoch: 1000
next table: 1968
cur table: 1952
epoch: 1000
next table: 2652
cur table: 2663
epoch: 1000
next table: 1970
cur table: 1968
epoch: 1000
next table: 2646
cur table: 2652
epoch: 1000
next table: 1963
cur table: 1970
epoch: 1000
next table: 2651
cur table: 2646
epoch: 1000
next table: 1954
cur table: 1963
epoch: 1000
next table: 2652
cur table: 2651
epoch: 1000
next table: 1951
cur table: 1954
epoch: 1000
next table: 2660
cur table: 2652
epoch: 1000
next table: 1958
cur table: 1951
epoch: 1000
next table: 2661
cur table: 2660
epoch: 1000
next table: 1964
cur table: 1958
epoch: 1000
next table: 2659
cur table: 2661
epoch: 1000
next table: 1961
cur table: 1964
epoch: 1000
next table: 2645
cur table: 2659
epoch: 1000
next table: 1972
cur table: 1961
epoch: 1000
next table: 2639
cur table: 2645
epoch: 1000
next table: 1983
cur table: 1972
epoch: 1000
next table: 2604
cur table: 2639
epoch: 1000
next table: 2008
cur table: 1983
epoch: 1000
next table: 2619
cur table: 2604
epoch: 1000
next table: 1969
cur table: 2008
epoch: 1000
next table: 2607
cur table: 2619
epoch: 1000
next table: 2013
cur table: 1969
epoch: 1000
next table: 2586
cur table: 2607
epoch: 1000
next table: 1973
cur table: 2013
epoch: 1000
next table: 2574
cur table: 2586
epoch: 1000
next table: 2032
cur table: 1973
epoch: 1000
next table: 2595
cur table: 2574
epoch: 1000
next table: 1988
cur table: 2032
epoch: 1000
next table: 2569
cur table: 2595
epoch: 1000
next table: 1998
cur table: 1988
epoch: 1000
next table: 2653
cur table: 2569
epoch: 1000
next table: 1954
cur table: 1998
epoch: 1000
next table: 2631
cur table: 2653
epoch: 1000
next table: 1984
cur table: 1954
epoch: 1000
next table: 2639
cur table: 2631
epoch: 1000
next table: 1951
cur table: 1984
epoch: 1000
next table: 2619
cur table: 2639
epoch: 1000
next table: 1997
cur table: 1951
epoch: 1000
next table: 2628
cur table: 2619
epoch: 1000
next table: 1958
cur table: 1997
epoch: 1000
next table: 2644
cur table: 2628
epoch: 1000
next table: 1945
cur table: 1958
epoch: 1000
next table: 2648
cur table: 2644
epoch: 1000
next table: 1973
cur table: 1945
epoch: 1000
next table: 2615
cur table: 2648
epoch: 1000
next table: 1973
cur table: 1973
epoch: 1000
next table: 2642
cur table: 2615
epoch: 1000
next table: 1954
cur table: 1973
epoch: 1000
next table: 2641
cur table: 2642
epoch: 1000
next table: 1975
cur table: 1954
epoch: 1000
next table: 2642
cur table: 2641
epoch: 1000
next table: 1956
cur table: 1975
epoch: 1000
next table: 2639
cur table: 2642
epoch: 1000
next table: 1961
cur table: 1956
epoch: 1000
next table: 2655
cur table: 2639
epoch: 1000
next table: 1959
cur table: 1961
epoch: 1000
next table: 2656
cur table: 2655
epoch: 1000
next table: 1959
cur table: 1959
epoch: 1000
next table: 2654
cur table: 2656
epoch: 1000
next table: 1960
cur table: 1959
epoch: 1000
next table: 2644
cur table: 2654
epoch: 1000
next table: 1953
cur table: 1960
epoch: 1000
next table: 2644
cur table: 2644
epoch: 1000
next table: 1988
cur table: 1953
epoch: 1000
next table: 2625
cur table: 2644
epoch: 1000
next table: 1961
cur table: 1988
epoch: 1000
next table: 2630
cur table: 2625
epoch: 1000
next table: 1979
cur table: 1961
epoch: 1000
next table: 2626
cur table: 2630
epoch: 1000
next table: 1951
cur table: 1979
epoch: 1000
next table: 2638
cur table: 2626
epoch: 1000
next table: 1956
cur table: 1951
epoch: 1000
next table: 2659
cur table: 2638
epoch: 1000
next table: 1936
cur table: 1956
epoch: 1000
next table: 2663
cur table: 2659
epoch: 1000
next table: 1951
cur table: 1936
epoch: 1000
next table: 2661
cur table: 2663
epoch: 1000
next table: 1946
cur table: 1951
epoch: 1000
next table: 2665
cur table: 2661
epoch: 1000
next table: 1956
cur table: 1946
epoch: 1000
next table: 2659
cur table: 2665
epoch: 1000
next table: 1954
cur table: 1956
epoch: 1000
next table: 2663
cur table: 2659
epoch: 1000
next table: 1952
cur table: 1954
epoch: 1000
next table: 2659
cur table: 2663
epoch: 1000
next table: 1944
cur table: 1952
epoch: 1000
next table: 2669
cur table: 2659
epoch: 1000
next table: 1954
cur table: 1944
epoch: 1000
next table: 2656
cur table: 2669
epoch: 1000
next table: 1968
cur table: 1954
epoch: 1000
next table: 2621
cur table: 2656
epoch: 1000
next table: 1987
cur table: 1968
epoch: 1000
next table: 2600
cur table: 2621
epoch: 1000
next table: 2617
cur table: 2600
epoch: 1000
next table: 1974
cur table: 1987
epoch: 1000
next table: 2573
cur table: 2617
epoch: 1000
next table: 2009
cur table: 1974
epoch: 1000
next table: 2641
cur table: 2573
epoch: 1000
next table: 1952
cur table: 2009
epoch: 1000
next table: 2647
cur table: 2641
epoch: 1000
next table: 1967
cur table: 1952
epoch: 1000
next table: 2663
cur table: 2647
epoch: 1000
next table: 1949
cur table: 1967
epoch: 1000
next table: 2656
cur table: 2663
epoch: 1000
next table: 1969
cur table: 1949
epoch: 1000
next table: 2662
cur table: 2656
epoch: 1000
next table: 1953
cur table: 1969
epoch: 1000
next table: 2657
cur table: 2662
epoch: 1000
next table: 1980
cur table: 1953
epoch: 1000
next table: 2660
cur table: 2657
epoch: 1000
next table: 1937
cur table: 1980
epoch: 1000
next table: 2654
cur table: 2660
epoch: 1000
next table: 1977
cur table: 1937
epoch: 1000
next table: 2646
cur table: 2654
epoch: 1000
next table: 1966
cur table: 1977
epoch: 1000
next table: 2612
cur table: 2646
epoch: 1000
next table: 1981
cur table: 1966
epoch: 1000
next table: 2656
cur table: 2612
epoch: 1000
next table: 1958
cur table: 1981
epoch: 1000
next table: 2636
cur table: 2656
epoch: 1000
next table: 1968
cur table: 1958
epoch: 1000
next table: 2642
cur table: 2636
epoch: 1000
next table: 1973
cur table: 1968
epoch: 1000
next table: 2601
cur table: 2642
epoch: 1000
next table: 1965
cur table: 1973
epoch: 1000
next table: 2627
cur table: 2601
epoch: 1000
next table: 1973
cur table: 1965
epoch: 1000
next table: 2643
cur table: 2627
epoch: 1000
next table: 1939
cur table: 1973
epoch: 1000
next table: 2654
cur table: 2643
epoch: 1000
next table: 1974
cur table: 1939
epoch: 1000
next table: 2627
cur table: 2654
epoch: 1000
next table: 1939
cur table: 1974
epoch: 1000
next table: 2624
cur table: 2627
epoch: 1000
next table: 1994
cur table: 1939
epoch: 1000
next table: 2575
cur table: 2624
epoch: 1000
next table: 1982
cur table: 1994
epoch: 1000
next table: 2603
cur table: 2575
epoch: 1000
next table: 1960
cur table: 1982
epoch: 1000
next table: 2643
cur table: 2603
epoch: 1000
next table: 1921
cur table: 1960
epoch: 1000
next table: 2626
cur table: 2643
epoch: 1000
next table: 2002
cur table: 1921
epoch: 1000
next table: 2591
cur table: 2626
epoch: 1000
next table: 1964
cur table: 2002
epoch: 1000
next table: 2637
cur table: 2591
epoch: 1000
next table: 1977
cur table: 1964
epoch: 1000
next table: 2626
cur table: 2637
epoch: 1000
next table: 1945
cur table: 1977
epoch: 1000
next table: 2620
cur table: 2626
epoch: 1000
next table: 2001
cur table: 1945
epoch: 1000
next table: 2599
cur table: 2620
epoch: 1000
next table: 1953
cur table: 2001
epoch: 1000
next table: 2621
cur table: 2599
epoch: 1000
next table: 1997
cur table: 1953
epoch: 1000
next table: 2625
cur table: 2621
epoch: 1000
next table: 1947
cur table: 1997
epoch: 1000
next table: 2648
cur table: 2625
epoch: 1000
next table: 1983
cur table: 1947
epoch: 1000
next table: 2661
cur table: 2648
epoch: 1000
next table: 1947
cur table: 1983
epoch: 1000
next table: 2646
cur table: 2661
epoch: 1000
next table: 1950
cur table: 1947
epoch: 1000
next table: 2648
cur table: 2646
epoch: 1000
next table: 1953
cur table: 1950
epoch: 1000
next table: 2635
cur table: 2648
epoch: 1000
next table: 1969
cur table: 1953
epoch: 1000
next table: 2631
cur table: 2635
epoch: 1000
next table: 1969
cur table: 1969
epoch: 1000
next table: 2639
cur table: 2631
epoch: 1000
next table: 1939
cur table: 1969
epoch: 1000
next table: 2654
cur table: 2639
epoch: 1000
next table: 1958
cur table: 1939
epoch: 1000
next table: 2650
cur table: 2654
epoch: 1000
next table: 1923
cur table: 1958
epoch: 1000
next table: 2661
cur table: 2650
epoch: 1000
next table: 1948
cur table: 1923
epoch: 1000
next table: 2662
cur table: 2661
epoch: 1000
next table: 1938
cur table: 1948
epoch: 1000
next table: 2657
cur table: 2662
epoch: 1000
next table: 1932
cur table: 1938
epoch: 1000
next table: 2664
cur table: 2657
epoch: 1000
next table: 1935
cur table: 1932
epoch: 1000
next table: 2660
cur table: 2664
epoch: 1000
next table: 1939
cur table: 1935
epoch: 1000
next table: 2664
cur table: 2660
epoch: 1000
next table: 1943
cur table: 1939
epoch: 1000
next table: 2658
cur table: 2664
epoch: 1000
next table: 1932
cur table: 1943
epoch: 1000
next table: 2663
cur table: 2658
epoch: 1000
next table: 1939
cur table: 1932
epoch: 1000
next table: 2665
cur table: 2663
epoch: 1000
next table: 1943
cur table: 1939
epoch: 1000
next table: 2660
cur table: 2665
epoch: 1000
next table: 1949
cur table: 1943
epoch: 1000
next table: 2665
cur table: 2660
epoch: 1000
next table: 1953
cur table: 1949
epoch: 1000
next table: 2658
cur table: 2665
epoch: 1000
next table: 1935
cur table: 1953
epoch: 1000
next table: 2667
cur table: 2658
epoch: 1000
next table: 1943
cur table: 1935
epoch: 1000
next table: 2661
cur table: 2667
epoch: 1000
next table: 1947
cur table: 1943
epoch: 1000
next table: 2661
cur table: 2661
epoch: 1000
next table: 1950
cur table: 1947
epoch: 1000
next table: 2665
cur table: 2661
epoch: 1000
next table: 1958
cur table: 1950
epoch: 1000
next table: 2635
cur table: 2665
epoch: 1000
next table: 1989
cur table: 1958
epoch: 1000
next table: 2628
cur table: 2635
epoch: 1000
next table: 1964
cur table: 1989
epoch: 1000
next table: 2632
cur table: 2628
epoch: 1000
next table: 1979
cur table: 1964
epoch: 1000
next table: 2648
cur table: 2632
epoch: 1000
next table: 1974
cur table: 1979
epoch: 1000
next table: 2591
cur table: 2648
epoch: 1000
next table: 2074
cur table: 1974
epoch: 1000
next table: 2471
cur table: 2591
epoch: 1000
next table: 2061
cur table: 2074
epoch: 1000
next table: 2545
cur table: 2471
epoch: 1000
next table: 2571
cur table: 2545
epoch: 1000
next table: 2024
cur table: 2061
epoch: 1000
next table: 2636
cur table: 2571
epoch: 1000
next table: 1979
cur table: 2024
epoch: 1000
next table: 2586
cur table: 2636
epoch: 1000
next table: 2018
cur table: 1979
epoch: 1000
next table: 2547
cur table: 2586
epoch: 1000
next table: 2031
cur table: 2018
epoch: 1000
next table: 2571
cur table: 2547
epoch: 1000
next table: 2018
cur table: 2031
epoch: 1000
next table: 2614
cur table: 2571
epoch: 1000
next table: 2002
cur table: 2018
epoch: 1000
next table: 2583
cur table: 2614
epoch: 1000
next table: 2015
cur table: 2002
epoch: 1000
next table: 2572
cur table: 2583
epoch: 1000
next table: 2032
cur table: 2015
epoch: 1000
next table: 2546
cur table: 2572
epoch: 1000
next table: 2055
cur table: 2032
epoch: 1000
next table: 2508
cur table: 2546
epoch: 1000
next table: 2044
cur table: 2055
epoch: 1000
next table: 2563
cur table: 2508
epoch: 1000
next table: 2023
cur table: 2044
epoch: 1000
next table: 2569
cur table: 2563
epoch: 1000
next table: 2011
cur table: 2023
epoch: 1000
next table: 2580
cur table: 2569
epoch: 1000
next table: 2042
cur table: 2011
epoch: 1000
next table: 2531
cur table: 2580
epoch: 1000
next table: 2019
cur table: 2042
epoch: 1000
next table: 2554
cur table: 2531
epoch: 1000
next table: 2029
cur table: 2019
epoch: 1000
next table: 2571
cur table: 2554
epoch: 1000
next table: 1967
cur table: 2029
epoch: 1000
next table: 2622
cur table: 2571
epoch: 1000
next table: 2014
cur table: 1967
epoch: 1000
next table: 2579
cur table: 2622
epoch: 1000
next table: 1961
cur table: 2014
epoch: 1000
next table: 2624
cur table: 2579
epoch: 1000
next table: 2590
cur table: 2624
epoch: 1000
next table: 2010
cur table: 1961
epoch: 1000
next table: 2519
cur table: 2590
epoch: 1000
next table: 2041
cur table: 2010
epoch: 1000
next table: 2471
cur table: 2519
epoch: 1000
next table: 2085
cur table: 2041
epoch: 1000
next table: 2527
cur table: 2471
epoch: 1000
next table: 2012
cur table: 2085
epoch: 1000
next table: 2599
cur table: 2527
epoch: 1000
next table: 1998
cur table: 2012
epoch: 1000
next table: 2607
cur table: 2599
epoch: 1000
next table: 1975
cur table: 1998
epoch: 1000
next table: 2632
cur table: 2607
epoch: 1000
next table: 1965
cur table: 1975
epoch: 1000
next table: 2636
cur table: 2632
epoch: 1000
next table: 1968
cur table: 1965
epoch: 1000
next table: 2632
cur table: 2636
epoch: 1000
next table: 1957
cur table: 1968
epoch: 1000
next table: 2657
cur table: 2632
epoch: 1000
next table: 1967
cur table: 1957
epoch: 1000
next table: 2650
cur table: 2657
epoch: 1000
next table: 1947
cur table: 1967
epoch: 1000
next table: 2648
cur table: 2650
epoch: 1000
next table: 1957
cur table: 1947
epoch: 1000
next table: 2656
cur table: 2648
epoch: 1000
next table: 1954
cur table: 1957
epoch: 1000
next table: 2657
cur table: 2656
epoch: 1000
next table: 1949
cur table: 1954
epoch: 1000
next table: 2660
cur table: 2657
epoch: 1000
next table: 1940
cur table: 1949
epoch: 1000
next table: 2661
cur table: 2660
epoch: 1000
next table: 1954
cur table: 1940
epoch: 1000
next table: 2656
cur table: 2661
epoch: 1000
next table: 1948
cur table: 1954
epoch: 1000
next table: 2655
cur table: 2656
epoch: 1000
next table: 1968
cur table: 1948
epoch: 1000
next table: 2634
cur table: 2655
epoch: 1000
next table: 1979
cur table: 1968
epoch: 1000
next table: 2610
cur table: 2634
epoch: 1000
next table: 1981
cur table: 1979
epoch: 1000
next table: 2618
cur table: 2610
epoch: 1000
next table: 2002
cur table: 1981
epoch: 1000
next table: 2622
cur table: 2618
epoch: 1000
next table: 2009
cur table: 2002
epoch: 1000
next table: 2572
cur table: 2622
epoch: 1000
next table: 2001
cur table: 2009
epoch: 1000
next table: 2595
cur table: 2572
epoch: 1000
next table: 1996
cur table: 2001
epoch: 1000
next table: 2621
cur table: 2595
epoch: 1000
next table: 1986
cur table: 1996
epoch: 1000
next table: 2623
cur table: 2621
epoch: 1000
next table: 1981
cur table: 1986
epoch: 1000
next table: 2651
cur table: 2623
epoch: 1000
next table: 1966
cur table: 1981
epoch: 1000
next table: 2644
cur table: 2651
epoch: 1000
next table: 1964
cur table: 1966
epoch: 1000
next table: 2635
cur table: 2644
epoch: 1000
next table: 1990
cur table: 1964
epoch: 1000
next table: 2595
cur table: 2635
epoch: 1000
next table: 2002
cur table: 1990
epoch: 1000
next table: 2560
cur table: 2595
epoch: 1000
next table: 2009
cur table: 2002
epoch: 1000
next table: 2574
cur table: 2560
epoch: 1000
next table: 1975
cur table: 2009
epoch: 1000
next table: 2642
cur table: 2574
epoch: 1000
next table: 1944
cur table: 1975
epoch: 1000
next table: 2652
cur table: 2642
epoch: 1000
next table: 1965
cur table: 1944
epoch: 1000
next table: 2652
cur table: 2652
epoch: 1000
next table: 1946
cur table: 1965
epoch: 1000
next table: 2663
cur table: 2652
epoch: 1000
next table: 1978
cur table: 1946
epoch: 1000
next table: 2656
cur table: 2663
epoch: 1000
next table: 1950
cur table: 1978
epoch: 1000
next table: 2618
cur table: 2656
epoch: 1000
next table: 2004
cur table: 1950
epoch: 1000
next table: 2606
cur table: 2618
epoch: 1000
next table: 1934
cur table: 2004
epoch: 1000
next table: 2646
cur table: 2606
epoch: 1000
next table: 2643
cur table: 2646
epoch: 1000
next table: 1992
cur table: 1934
epoch: 1000
next table: 2650
cur table: 2643
epoch: 1000
next table: 1956
cur table: 1992
epoch: 1000
next table: 2660
cur table: 2650
epoch: 1000
next table: 1978
cur table: 1956
epoch: 1000
next table: 2655
cur table: 2660
epoch: 1000
next table: 1954
cur table: 1978
epoch: 1000
next table: 2652
cur table: 2655
epoch: 1000
next table: 1983
cur table: 1954
epoch: 1000
next table: 2647
cur table: 2652
epoch: 1000
next table: 1963
cur table: 1983
epoch: 1000
next table: 2647
cur table: 2647
epoch: 1000
next table: 1979
cur table: 1963
epoch: 1000
next table: 2660
cur table: 2647
epoch: 1000
next table: 1956
cur table: 1979
epoch: 1000
next table: 2664
cur table: 2660
epoch: 1000
next table: 1967
cur table: 1956
epoch: 1000
next table: 2666
cur table: 2664
epoch: 1000
next table: 1950
cur table: 1967
epoch: 1000
next table: 2659
cur table: 2666
epoch: 1000
next table: 1964
cur table: 1950
epoch: 1000
next table: 2639
cur table: 2659
epoch: 1000
next table: 1961
cur table: 1964
epoch: 1000
next table: 2651
cur table: 2639
epoch: 1000
next table: 1964
cur table: 1961
epoch: 1000
next table: 2653
cur table: 2651
epoch: 1000
next table: 1954
cur table: 1964
epoch: 1000
next table: 2658
cur table: 2653
epoch: 1000
next table: 1964
cur table: 1954
epoch: 1000
next table: 2663
cur table: 2658
epoch: 1000
next table: 1950
cur table: 1964
epoch: 1000
next table: 2666
cur table: 2663
epoch: 1000
next table: 1959
cur table: 1950
epoch: 1000
next table: 2660
cur table: 2666
epoch: 1000
next table: 1948
cur table: 1959
epoch: 1000
next table: 2664
cur table: 2660
epoch: 1000
next table: 1957
cur table: 1948
epoch: 1000
next table: 2662
cur table: 2664
epoch: 1000
next table: 1962
cur table: 1957
epoch: 1000
next table: 2663
cur table: 2662
epoch: 1000
next table: 1953
cur table: 1962
epoch: 1000
next table: 2663
cur table: 2663
epoch: 1000
next table: 1955
cur table: 1953
epoch: 1000
next table: 2640
cur table: 2663
epoch: 1000
next table: 1962
cur table: 1955
epoch: 1000
next table: 2629
cur table: 2640
epoch: 1000
next table: 1976
cur table: 1962
epoch: 1000
next table: 2646
cur table: 2629
epoch: 1000
next table: 1964
cur table: 1976
epoch: 1000
next table: 2617
cur table: 2646
epoch: 1000
next table: 1975
cur table: 1964
epoch: 1000
next table: 2642
cur table: 2617
epoch: 1000
next table: 1972
cur table: 1975
epoch: 1000
next table: 2615
cur table: 2642
epoch: 1000
next table: 1973
cur table: 1972
epoch: 1000
next table: 2627
cur table: 2615
epoch: 1000
next table: 1985
cur table: 1973
epoch: 1000
next table: 2607
cur table: 2627
epoch: 1000
next table: 1963
cur table: 1985
epoch: 1000
next table: 2631
cur table: 2607
epoch: 1000
next table: 1984
cur table: 1963
epoch: 1000
next table: 2627
cur table: 2631
epoch: 1000
next table: 1951
cur table: 1984
epoch: 1000
next table: 2647
cur table: 2627
epoch: 1000
next table: 1956
cur table: 1951
epoch: 1000
next table: 2658
cur table: 2647
epoch: 1000
next table: 1928
cur table: 1956
epoch: 1000
next table: 2656
cur table: 2658
epoch: 1000
next table: 1959
cur table: 1928
epoch: 1000
next table: 2645
cur table: 2656
epoch: 1000
next table: 1939
cur table: 1959
epoch: 1000
next table: 2660
cur table: 2645
epoch: 1000
next table: 1942
cur table: 1939
epoch: 1000
next table: 2654
cur table: 2660
epoch: 1000
next table: 1939
cur table: 1942
epoch: 1000
next table: 2654
cur table: 2654
epoch: 1000
next table: 1959
cur table: 1939
epoch: 1000
next table: 2657
cur table: 2654
epoch: 1000
next table: 1951
cur table: 1959
epoch: 1000
next table: 2661
cur table: 2657
epoch: 1000
next table: 1952
cur table: 1951
epoch: 1000
next table: 2664
cur table: 2661
epoch: 1000
next table: 1928
cur table: 1952
epoch: 1000
next table: 2664
cur table: 2664
epoch: 1000
next table: 1940
cur table: 1928
epoch: 1000
next table: 2658
cur table: 2664
epoch: 1000
next table: 1945
cur table: 1940
epoch: 1000
next table: 2661
cur table: 2658
epoch: 1000
next table: 1961
cur table: 1945
epoch: 1000
next table: 2659
cur table: 2661
epoch: 1000
next table: 1944
cur table: 1961
epoch: 1000
next table: 2656
cur table: 2659
epoch: 1000
next table: 1972
cur table: 1944
epoch: 1000
next table: 2659
cur table: 2656
epoch: 1000
next table: 1935
cur table: 1972
epoch: 1000
next table: 2661
cur table: 2659
epoch: 1000
next table: 1959
cur table: 1935
epoch: 1000
next table: 2662
cur table: 2661
epoch: 1000
next table: 1921
cur table: 1959
epoch: 1000
next table: 2664
cur table: 2662
epoch: 1000
next table: 1961
cur table: 1921
epoch: 1000
next table: 2665
cur table: 2664
epoch: 1000
next table: 1929
cur table: 1961
epoch: 1000
next table: 2655
cur table: 2665
epoch: 1000
next table: 1945
cur table: 1929
epoch: 1000
next table: 2668
cur table: 2655
epoch: 1000
next table: 1936
cur table: 1945
epoch: 1000
next table: 2657
cur table: 2668
epoch: 1000
next table: 1959
cur table: 1936
epoch: 1000
next table: 2667
cur table: 2657
epoch: 1000
next table: 1915
cur table: 1959
epoch: 1000
next table: 2648
cur table: 2667
epoch: 1000
next table: 1969
cur table: 1915
epoch: 1000
next table: 2651
cur table: 2648
epoch: 1000
next table: 1933
cur table: 1969
epoch: 1000
next table: 2614
cur table: 2651
epoch: 1000
next table: 1977
cur table: 1933
epoch: 1000
next table: 2644
cur table: 2614
epoch: 1000
next table: 1943
cur table: 1977
epoch: 1000
next table: 2583
cur table: 2644
epoch: 1000
next table: 2017
cur table: 1943
epoch: 1000
next table: 2588
cur table: 2583
epoch: 1000
next table: 1980
cur table: 2017
epoch: 1000
next table: 2624
cur table: 2588
epoch: 1000
next table: 1993
cur table: 1980
epoch: 1000
next table: 2600
cur table: 2624
epoch: 1000
next table: 1966
cur table: 1993
epoch: 1000
next table: 2609
cur table: 2600
epoch: 1000
next table: 2016
cur table: 1966
epoch: 1000
next table: 2591
cur table: 2609
epoch: 1000
next table: 1975
cur table: 2016
epoch: 1000
next table: 2593
cur table: 2591
epoch: 1000
next table: 1994
cur table: 1975
epoch: 1000
next table: 2628
cur table: 2593
epoch: 1000
next table: 1974
cur table: 1994
epoch: 1000
next table: 2620
cur table: 2628
epoch: 1000
next table: 1985
cur table: 1974
epoch: 1000
next table: 2609
cur table: 2620
epoch: 1000
next table: 1999
cur table: 1985
epoch: 1000
next table: 2569
cur table: 2609
epoch: 1000
next table: 2014
cur table: 1999
epoch: 1000
next table: 2577
cur table: 2569
epoch: 1000
next table: 2009
cur table: 2014
epoch: 1000
next table: 2575
cur table: 2577
epoch: 1000
next table: 2006
cur table: 2009
epoch: 1000
next table: 2582
cur table: 2575
epoch: 1000
next table: 2537
cur table: 2582
epoch: 1000
next table: 2022
cur table: 2006
epoch: 1000
next table: 2606
cur table: 2537
epoch: 1000
next table: 1983
cur table: 2022
epoch: 1000
next table: 2543
cur table: 2606
epoch: 1000
next table: 2017
cur table: 1983
epoch: 1000
next table: 2593
cur table: 2543
epoch: 1000
next table: 1992
cur table: 2017
epoch: 1000
next table: 2542
cur table: 2593
epoch: 1000
next table: 2049
cur table: 1992
epoch: 1000
next table: 2553
cur table: 2542
epoch: 1000
next table: 2014
cur table: 2049
epoch: 1000
next table: 2590
cur table: 2553
epoch: 1000
next table: 1987
cur table: 2014
epoch: 1000
next table: 2614
cur table: 2590
epoch: 1000
next table: 1978
cur table: 1987
epoch: 1000
next table: 2629
cur table: 2614
epoch: 1000
next table: 1977
cur table: 1978
epoch: 1000
next table: 2633
cur table: 2629
epoch: 1000
next table: 1981
cur table: 1977
epoch: 1000
next table: 2598
cur table: 2633
epoch: 1000
next table: 1995
cur table: 1981
epoch: 1000
next table: 2601
cur table: 2598
epoch: 1000
next table: 1993
cur table: 1995
epoch: 1000
next table: 2574
cur table: 2601
epoch: 1000
next table: 2032
cur table: 1993
epoch: 1000
next table: 2509
cur table: 2574
epoch: 1000
next table: 2027
cur table: 2032
epoch: 1000
next table: 2568
cur table: 2509
epoch: 1000
next table: 2017
cur table: 2027
epoch: 1000
next table: 2587
cur table: 2568
epoch: 1000
next table: 2001
cur table: 2017
epoch: 1000
next table: 2600
cur table: 2587
epoch: 1000
next table: 2050
cur table: 2001
epoch: 1000
next table: 2518
cur table: 2600
epoch: 1000
next table: 2034
cur table: 2050
epoch: 1000
next table: 2562
cur table: 2518
epoch: 1000
next table: 1988
cur table: 2034
epoch: 1000
next table: 2600
cur table: 2562
epoch: 1000
next table: 2543
cur table: 2600
epoch: 1000
next table: 2038
cur table: 1988
epoch: 1000
next table: 2572
cur table: 2543
epoch: 1000
next table: 2005
cur table: 2038
epoch: 1000
next table: 2594
cur table: 2572
epoch: 1000
next table: 2001
cur table: 2005
epoch: 1000
next table: 2554
cur table: 2594
epoch: 1000
next table: 1999
cur table: 2001
epoch: 1000
next table: 2587
cur table: 2554
epoch: 1000
next table: 2005
cur table: 1999
epoch: 1000
next table: 2596
cur table: 2587
epoch: 1000
next table: 1966
cur table: 2005
epoch: 1000
next table: 2620
cur table: 2596
epoch: 1000
next table: 2002
cur table: 1966
epoch: 1000
next table: 2585
cur table: 2620
epoch: 1000
next table: 1965
cur table: 2002
epoch: 1000
next table: 2598
cur table: 2585
epoch: 1000
next table: 2006
cur table: 1965
epoch: 1000
next table: 2572
cur table: 2598
epoch: 1000
next table: 1967
cur table: 2006
epoch: 1000
next table: 2554
cur table: 2572
epoch: 1000
next table: 2000
cur table: 1967
epoch: 1000
next table: 2601
cur table: 2554
epoch: 1000
next table: 1996
cur table: 2000
epoch: 1000
next table: 2534
cur table: 2601
epoch: 1000
next table: 2003
cur table: 1996
epoch: 1000
next table: 2545
cur table: 2534
epoch: 1000
next table: 2015
cur table: 2003
epoch: 1000
next table: 2602
cur table: 2545
epoch: 1000
next table: 1965
cur table: 2015
epoch: 1000
next table: 2561
cur table: 2602
epoch: 1000
next table: 2040
cur table: 1965
epoch: 1000
next table: 2556
cur table: 2561
epoch: 1000
next table: 1962
cur table: 2040
epoch: 1000
next table: 2593
cur table: 2556
epoch: 1000
next table: 1989
cur table: 1962
epoch: 1000
next table: 2598
cur table: 2593
epoch: 1000
next table: 2021
cur table: 1989
epoch: 1000
next table: 2556
cur table: 2598
epoch: 1000
next table: 2569
cur table: 2556
epoch: 1000
next table: 2013
cur table: 2021
epoch: 1000
next table: 2620
cur table: 2569
epoch: 1000
next table: 1969
cur table: 2013
epoch: 1000
next table: 2547
cur table: 2620
epoch: 1000
next table: 2028
cur table: 1969
epoch: 1000
next table: 2610
cur table: 2547
epoch: 1000
next table: 1987
cur table: 2028
epoch: 1000
next table: 2593
cur table: 2610
epoch: 1000
next table: 2008
cur table: 1987
epoch: 1000
next table: 2594
cur table: 2593
epoch: 1000
next table: 1989
cur table: 2008
epoch: 1000
next table: 2606
cur table: 2594
epoch: 1000
next table: 2018
cur table: 1989
epoch: 1000
next table: 2542
cur table: 2606
epoch: 1000
next table: 2029
cur table: 2018
epoch: 1000
next table: 2569
cur table: 2542
epoch: 1000
next table: 2034
cur table: 2029
epoch: 1000
next table: 2500
cur table: 2569
epoch: 1000
next table: 2079
cur table: 2034
epoch: 1000
next table: 2539
cur table: 2500
epoch: 1000
next table: 2000
cur table: 2079
epoch: 1000
next table: 2597
cur table: 2539
epoch: 1000
next table: 1998
cur table: 2000
epoch: 1000
next table: 2595
cur table: 2597
epoch: 1000
next table: 1977
cur table: 1998
epoch: 1000
next table: 2627
cur table: 2595
epoch: 1000
next table: 2015
cur table: 1977
epoch: 1000
next table: 2572
cur table: 2627
epoch: 1000
next table: 2011
cur table: 2015
epoch: 1000
next table: 2563
cur table: 2572
epoch: 1000
next table: 1995
cur table: 2011
epoch: 1000
next table: 2602
cur table: 2563
epoch: 1000
next table: 2001
cur table: 1995
epoch: 1000
next table: 2576
cur table: 2602
epoch: 1000
next table: 2024
cur table: 2001
epoch: 1000
next table: 2556
cur table: 2576
epoch: 1000
next table: 2592
cur table: 2556
epoch: 1000
next table: 1998
cur table: 2024
Heartbeat CPU 0 instructions: 10000000 cycles: 2913577 heartbeat IPC: 3.43221 cumulative IPC: 3.43221 (Simulation time: 0 hr 2 min 41 sec) 
epoch: 1000
next table: 2560
cur table: 2592
epoch: 1000
next table: 2015
cur table: 1998
epoch: 1000
next table: 2597
cur table: 2560
epoch: 1000
next table: 2005
cur table: 2015
epoch: 1000
next table: 2579
cur table: 2597
epoch: 1000
next table: 1990
cur table: 2005
epoch: 1000
next table: 2575
cur table: 2579
epoch: 1000
next table: 2023
cur table: 1990
epoch: 1000
next table: 2542
cur table: 2575
epoch: 1000
next table: 2038
cur table: 2023
epoch: 1000
next table: 2581
cur table: 2542
epoch: 1000
next table: 2002
cur table: 2038
epoch: 1000
next table: 2583
cur table: 2581
epoch: 1000
next table: 2013
cur table: 2002
epoch: 1000
next table: 2561
cur table: 2583
epoch: 1000
next table: 2008
cur table: 2013
epoch: 1000
next table: 2557
cur table: 2561
epoch: 1000
next table: 2020
cur table: 2008
epoch: 1000
next table: 2556
cur table: 2557
epoch: 1000
next table: 2009
cur table: 2020
epoch: 1000
next table: 2575
cur table: 2556
epoch: 1000
next table: 1973
cur table: 2009
epoch: 1000
next table: 2634
cur table: 2575
epoch: 1000
next table: 1992
cur table: 1973
epoch: 1000
next table: 2530
cur table: 2634
epoch: 1000
next table: 2019
cur table: 1992
epoch: 1000
next table: 2562
cur table: 2530
epoch: 1000
next table: 1993
cur table: 2019
epoch: 1000
next table: 2565
cur table: 2562
epoch: 1000
next table: 2004
cur table: 1993
epoch: 1000
next table: 2573
cur table: 2565
epoch: 1000
next table: 2004
cur table: 2004
epoch: 1000
next table: 2533
cur table: 2573
epoch: 1000
next table: 2519
cur table: 2533
epoch: 1000
next table: 2055
cur table: 2004
epoch: 1000
next table: 2573
cur table: 2519
epoch: 1000
next table: 1972
cur table: 2055
epoch: 1000
next table: 2568
cur table: 2573
epoch: 1000
next table: 2010
cur table: 1972
epoch: 1000
next table: 2566
cur table: 2568
epoch: 1000
next table: 2009
cur table: 2010
epoch: 1000
next table: 2609
cur table: 2566
epoch: 1000
next table: 1979
cur table: 2009
epoch: 1000
next table: 2596
cur table: 2609
epoch: 1000
next table: 1994
cur table: 1979
epoch: 1000
next table: 2580
cur table: 2596
epoch: 1000
next table: 2006
cur table: 1994
epoch: 1000
next table: 2577
cur table: 2580
epoch: 1000
next table: 2002
cur table: 2006
epoch: 1000
next table: 2565
cur table: 2577
epoch: 1000
next table: 2026
cur table: 2002
epoch: 1000
next table: 2544
cur table: 2565
epoch: 1000
next table: 2043
cur table: 2026
epoch: 1000
next table: 2545
cur table: 2544
epoch: 1000
next table: 2044
cur table: 2043
epoch: 1000
next table: 2587
cur table: 2545
epoch: 1000
next table: 1968
cur table: 2044
epoch: 1000
next table: 2629
cur table: 2587
epoch: 1000
next table: 2027
cur table: 1968
epoch: 1000
next table: 2566
cur table: 2629
epoch: 1000
next table: 2006
cur table: 2027
epoch: 1000
next table: 2588
cur table: 2566
epoch: 1000
next table: 2006
cur table: 2006
epoch: 1000
next table: 2591
cur table: 2588
epoch: 1000
next table: 2019
cur table: 2006
epoch: 1000
next table: 2559
cur table: 2591
epoch: 1000
next table: 1997
cur table: 2019
epoch: 1000
next table: 2596
cur table: 2559
epoch: 1000
next table: 1994
cur table: 1997
epoch: 1000
next table: 2587
cur table: 2596
epoch: 1000
next table: 1983
cur table: 1994
epoch: 1000
next table: 2624
cur table: 2587
epoch: 1000
next table: 1967
cur table: 1983
epoch: 1000
next table: 2640
cur table: 2624
epoch: 1000
next table: 2574
cur table: 2640
epoch: 1000
next table: 2005
cur table: 1967
epoch: 1000
next table: 2598
cur table: 2574
epoch: 1000
next table: 1988
cur table: 2005
epoch: 1000
next table: 2592
cur table: 2598
epoch: 1000
next table: 1997
cur table: 1988
epoch: 1000
next table: 2614
cur table: 2592
epoch: 1000
next table: 1985
cur table: 1997
epoch: 1000
next table: 2641
cur table: 2614
epoch: 1000
next table: 1953
cur table: 1985
epoch: 1000
next table: 2607
cur table: 2641
epoch: 1000
next table: 2022
cur table: 1953
epoch: 1000
next table: 2558
cur table: 2607
epoch: 1000
next table: 1967
cur table: 2022
epoch: 1000
next table: 2636
cur table: 2558
epoch: 1000
next table: 1989
cur table: 1967
epoch: 1000
next table: 2587
cur table: 2636
epoch: 1000
next table: 1966
cur table: 1989
epoch: 1000
next table: 2588
cur table: 2587
epoch: 1000
next table: 2001
cur table: 1966
epoch: 1000
next table: 2573
cur table: 2588
epoch: 1000
next table: 2000
cur table: 2001
epoch: 1000
next table: 2553
cur table: 2573
epoch: 1000
next table: 1975
cur table: 2000
epoch: 1000
next table: 2637
cur table: 2553
epoch: 1000
next table: 1973
cur table: 1975
epoch: 1000
next table: 2566
cur table: 2637
epoch: 1000
next table: 1984
cur table: 1973
epoch: 1000
next table: 2601
cur table: 2566
epoch: 1000
next table: 2015
cur table: 1984
epoch: 1000
next table: 2532
cur table: 2601
epoch: 1000
next table: 2050
cur table: 2015
epoch: 1000
next table: 2515
cur table: 2532
epoch: 1000
next table: 1974
cur table: 2050
epoch: 1000
next table: 2611
cur table: 2515
epoch: 1000
next table: 1963
cur table: 1974
epoch: 1000
next table: 2583
cur table: 2611
epoch: 1000
next table: 2001
cur table: 1963
epoch: 1000
next table: 2606
cur table: 2583
epoch: 1000
next table: 2007
cur table: 2001
epoch: 1000
next table: 2585
cur table: 2606
epoch: 1000
next table: 1981
cur table: 2007
epoch: 1000
next table: 2615
cur table: 2585
epoch: 1000
next table: 2006
cur table: 1981
epoch: 1000
next table: 2597
cur table: 2615
epoch: 1000
next table: 2579
cur table: 2597
epoch: 1000
next table: 2000
cur table: 2006
epoch: 1000
next table: 2559
cur table: 2579
epoch: 1000
next table: 2029
cur table: 2000
epoch: 1000
next table: 2583
cur table: 2559
epoch: 1000
next table: 2011
cur table: 2029
epoch: 1000
next table: 2544
cur table: 2583
epoch: 1000
next table: 2059
cur table: 2011
epoch: 1000
next table: 2525
cur table: 2544
epoch: 1000
next table: 2031
cur table: 2059
epoch: 1000
next table: 2557
cur table: 2525
epoch: 1000
next table: 2023
cur table: 2031
epoch: 1000
next table: 2550
cur table: 2557
epoch: 1000
next table: 2032
cur table: 2023
epoch: 1000
next table: 2538
cur table: 2550
epoch: 1000
next table: 2049
cur table: 2032
epoch: 1000
next table: 2552
cur table: 2538
epoch: 1000
next table: 2040
cur table: 2049
epoch: 1000
next table: 2555
cur table: 2552
epoch: 1000
next table: 2024
cur table: 2040
epoch: 1000
next table: 2557
cur table: 2555
epoch: 1000
next table: 2034
cur table: 2024
epoch: 1000
next table: 2564
cur table: 2557
epoch: 1000
next table: 2002
cur table: 2034
epoch: 1000
next table: 2590
cur table: 2564
epoch: 1000
next table: 1990
cur table: 2002
epoch: 1000
next table: 2598
cur table: 2590
epoch: 1000
next table: 2005
cur table: 1990
epoch: 1000
next table: 2559
cur table: 2598
epoch: 1000
next table: 1978
cur table: 2005
epoch: 1000
next table: 2610
cur table: 2559
epoch: 1000
next table: 1965
cur table: 1978
epoch: 1000
next table: 2577
cur table: 2610
epoch: 1000
next table: 2582
cur table: 2577
epoch: 1000
next table: 1982
cur table: 1965
epoch: 1000
next table: 2566
cur table: 2582
epoch: 1000
next table: 1979
cur table: 1982
epoch: 1000
next table: 2605
cur table: 2566
epoch: 1000
next table: 1970
cur table: 1979
epoch: 1000
next table: 2549
cur table: 2605
epoch: 1000
next table: 1987
cur table: 1970
epoch: 1000
next table: 2516
cur table: 2549
epoch: 1000
next table: 1993
cur table: 1987
epoch: 1000
next table: 2601
cur table: 2516
epoch: 1000
next table: 1958
cur table: 1993
epoch: 1000
next table: 2547
cur table: 2601
epoch: 1000
next table: 1987
cur table: 1958
epoch: 1000
next table: 2581
cur table: 2547
epoch: 1000
next table: 1964
cur table: 1987
epoch: 1000
next table: 2579
cur table: 2581
epoch: 1000
next table: 1973
cur table: 1964
epoch: 1000
next table: 2551
cur table: 2579
epoch: 1000
next table: 1972
cur table: 1973
epoch: 1000
next table: 2546
cur table: 2551
epoch: 1000
next table: 2070
cur table: 1972
epoch: 1000
next table: 2552
cur table: 2546
epoch: 1000
next table: 2056
cur table: 2070
epoch: 1000
next table: 2572
cur table: 2552
epoch: 1000
next table: 2034
cur table: 2056
epoch: 1000
next table: 2599
cur table: 2572
epoch: 1000
next table: 2019
cur table: 2034
epoch: 1000
next table: 2615
cur table: 2599
epoch: 1000
next table: 1972
cur table: 2019
epoch: 1000
next table: 2508
cur table: 2615
epoch: 1000
next table: 2455
cur table: 2508
epoch: 1000
next table: 2040
cur table: 1972
epoch: 1000
next table: 2523
cur table: 2455
epoch: 1000
next table: 2003
cur table: 2040
epoch: 1000
next table: 2511
cur table: 2523
epoch: 1000
next table: 2010
cur table: 2003
epoch: 1000
next table: 2609
cur table: 2511
epoch: 1000
next table: 1947
cur table: 2010
epoch: 1000
next table: 2637
cur table: 2609
epoch: 1000
next table: 1945
cur table: 1947
epoch: 1000
next table: 2640
cur table: 2637
epoch: 1000
next table: 1965
cur table: 1945
epoch: 1000
next table: 2609
cur table: 2640
epoch: 1000
next table: 1965
cur table: 1965
epoch: 1000
next table: 2642
cur table: 2609
epoch: 1000
next table: 1959
cur table: 1965
epoch: 1000
next table: 2601
cur table: 2642
epoch: 1000
next table: 1963
cur table: 1959
epoch: 1000
next table: 2622
cur table: 2601
epoch: 1000
next table: 1972
cur table: 1963
epoch: 1000
next table: 2611
cur table: 2622
epoch: 1000
next table: 1981
cur table: 1972
epoch: 1000
next table: 2579
cur table: 2611
epoch: 1000
next table: 2009
cur table: 1981
epoch: 1000
next table: 2546
cur table: 2579
epoch: 1000
next table: 1990
cur table: 2009
epoch: 1000
next table: 2584
cur table: 2546
epoch: 1000
next table: 2017
cur table: 1990
epoch: 1000
next table: 2581
cur table: 2584
epoch: 1000
next table: 1991
cur table: 2017
epoch: 1000
next table: 2592
cur table: 2581
epoch: 1000
next table: 1999
cur table: 1991
epoch: 1000
next table: 2566
cur table: 2592
epoch: 1000
next table: 2001
cur table: 1999
epoch: 1000
next table: 2611
cur table: 2566
epoch: 1000
next table: 1999
cur table: 2001
epoch: 1000
next table: 2558
cur table: 2611
epoch: 1000
next table: 2007
cur table: 1999
epoch: 1000
next table: 2589
cur table: 2558
epoch: 1000
next table: 1996
cur table: 2007
epoch: 1000
next table: 2583
cur table: 2589
epoch: 1000
next table: 2015
cur table: 1996
epoch: 1000
next table: 2586
cur table: 2583
epoch: 1000
next table: 2550
cur table: 2586
epoch: 1000
next table: 2022
cur table: 2015
epoch: 1000
next table: 2646
cur table: 2550
epoch: 1000
next table: 1964
cur table: 2022
epoch: 1000
next table: 2564
cur table: 2646
epoch: 1000
next table: 2001
cur table: 1964
epoch: 1000
next table: 2541
cur table: 2564
epoch: 1000
next table: 2027
cur table: 2001
epoch: 1000
next table: 2631
cur table: 2541
epoch: 1000
next table: 1978
cur table: 2027
epoch: 1000
next table: 2574
cur table: 2631
epoch: 1000
next table: 2027
cur table: 1978
epoch: 1000
next table: 2577
cur table: 2574
epoch: 1000
next table: 1985
cur table: 2027
epoch: 1000
next table: 2608
cur table: 2577
epoch: 1000
next table: 1992
cur table: 1985
epoch: 1000
next table: 2609
cur table: 2608
epoch: 1000
next table: 1987
cur table: 1992
epoch: 1000
next table: 2597
cur table: 2609
epoch: 1000
next table: 2003
cur table: 1987
epoch: 1000
next table: 2567
cur table: 2597
epoch: 1000
next table: 2031
cur table: 2003
epoch: 1000
next table: 2585
cur table: 2567
epoch: 1000
next table: 2011
cur table: 2031
epoch: 1000
next table: 2553
cur table: 2585
epoch: 1000
next table: 2031
cur table: 2011
epoch: 1000
next table: 2555
cur table: 2553
epoch: 1000
next table: 2006
cur table: 2031
epoch: 1000
next table: 2587
cur table: 2555
epoch: 1000
next table: 2014
cur table: 2006
epoch: 1000
next table: 2568
cur table: 2587
epoch: 1000
next table: 2041
cur table: 2014
epoch: 1000
next table: 2535
cur table: 2568
epoch: 1000
next table: 2020
cur table: 2041
epoch: 1000
next table: 2560
cur table: 2535
epoch: 1000
next table: 2018
cur table: 2020
epoch: 1000
next table: 2569
cur table: 2560
epoch: 1000
next table: 1968
cur table: 2018
epoch: 1000
next table: 2632
cur table: 2569
epoch: 1000
next table: 1998
cur table: 1968
epoch: 1000
next table: 2627
cur table: 2632
epoch: 1000
next table: 2604
cur table: 2627
epoch: 1000
next table: 1989
cur table: 1998
epoch: 1000
next table: 2634
cur table: 2604
epoch: 1000
next table: 1985
cur table: 1989
epoch: 1000
next table: 2628
cur table: 2634
epoch: 1000
next table: 1970
cur table: 1985
epoch: 1000
next table: 2578
cur table: 2628
epoch: 1000
next table: 2008
cur table: 1970
epoch: 1000
next table: 2560
cur table: 2578
epoch: 1000
next table: 2022
cur table: 2008
epoch: 1000
next table: 2593
cur table: 2560
epoch: 1000
next table: 2007
cur table: 2022
epoch: 1000
next table: 2615
cur table: 2593
epoch: 1000
next table: 1976
cur table: 2007
epoch: 1000
next table: 2543
cur table: 2615
epoch: 1000
next table: 2029
cur table: 1976
epoch: 1000
next table: 2626
cur table: 2543
epoch: 1000
next table: 1976
cur table: 2029
epoch: 1000
next table: 2571
cur table: 2626
epoch: 1000
next table: 1993
cur table: 1976
epoch: 1000
next table: 2623
cur table: 2571
epoch: 1000
next table: 1969
cur table: 1993
epoch: 1000
next table: 2640
cur table: 2623
epoch: 1000
next table: 1958
cur table: 1969
epoch: 1000
next table: 2622
cur table: 2640
epoch: 1000
next table: 1971
cur table: 1958
epoch: 1000
next table: 2625
cur table: 2622
epoch: 1000
next table: 1980
cur table: 1971
epoch: 1000
next table: 2617
cur table: 2625
epoch: 1000
next table: 1944
cur table: 1980
epoch: 1000
next table: 2638
cur table: 2617
epoch: 1000
next table: 1987
cur table: 1944
epoch: 1000
next table: 2605
cur table: 2638
epoch: 1000
next table: 1962
cur table: 1987
epoch: 1000
next table: 2614
cur table: 2605
epoch: 1000
next table: 1988
cur table: 1962
epoch: 1000
next table: 2601
cur table: 2614
epoch: 1000
next table: 1968
cur table: 1988
epoch: 1000
next table: 2631
cur table: 2601
epoch: 1000
next table: 1997
cur table: 1968
epoch: 1000
next table: 2565
cur table: 2631
epoch: 1000
next table: 1985
cur table: 1997
epoch: 1000
next table: 2628
cur table: 2565
epoch: 1000
next table: 1999
cur table: 1985
epoch: 1000
next table: 2576
cur table: 2628
epoch: 1000
next table: 2011
cur table: 1999
epoch: 1000
next table: 2568
cur table: 2576
epoch: 1000
next table: 1980
cur table: 2011
epoch: 1000
next table: 2598
cur table: 2568
epoch: 1000
next table: 2001
cur table: 1980
epoch: 1000
next table: 2575
cur table: 2598
epoch: 1000
next table: 2003
cur table: 2001
epoch: 1000
next table: 2569
cur table: 2575
epoch: 1000
next table: 2567
cur table: 2569
epoch: 1000
next table: 2026
cur table: 2003
epoch: 1000
next table: 2621
cur table: 2567
epoch: 1000
next table: 1965
cur table: 2026
epoch: 1000
next table: 2645
cur table: 2621
epoch: 1000
next table: 1984
cur table: 1965
epoch: 1000
next table: 2622
cur table: 2645
epoch: 1000
next table: 1957
cur table: 1984
epoch: 1000
next table: 2635
cur table: 2622
epoch: 1000
next table: 1980
cur table: 1957
epoch: 1000
next table: 2559
cur table: 2635
epoch: 1000
next table: 2009
cur table: 1980
epoch: 1000
next table: 2580
cur table: 2559
epoch: 1000
next table: 2007
cur table: 2009
epoch: 1000
next table: 2625
cur table: 2580
epoch: 1000
next table: 1976
cur table: 2007
epoch: 1000
next table: 2604
cur table: 2625
epoch: 1000
next table: 1979
cur table: 1976
epoch: 1000
next table: 2595
cur table: 2604
epoch: 1000
next table: 2001
cur table: 1979
epoch: 1000
next table: 2582
cur table: 2595
epoch: 1000
next table: 2005
cur table: 2001
epoch: 1000
next table: 2536
cur table: 2582
epoch: 1000
next table: 2019
cur table: 2005
epoch: 1000
next table: 2597
cur table: 2536
epoch: 1000
next table: 1970
cur table: 2019
epoch: 1000
next table: 2614
cur table: 2597
epoch: 1000
next table: 1981
cur table: 1970
epoch: 1000
next table: 2594
cur table: 2614
epoch: 1000
next table: 2016
cur table: 1981
epoch: 1000
next table: 2534
cur table: 2594
epoch: 1000
next table: 2012
cur table: 2016
epoch: 1000
next table: 2563
cur table: 2534
epoch: 1000
next table: 1981
cur table: 2012
epoch: 1000
next table: 2603
cur table: 2563
epoch: 1000
next table: 1985
cur table: 1981
epoch: 1000
next table: 2583
cur table: 2603
epoch: 1000
next table: 1939
cur table: 1985
epoch: 1000
next table: 2603
cur table: 2583
epoch: 1000
next table: 2048
cur table: 1939
epoch: 1000
next table: 2528
cur table: 2603
epoch: 1000
next table: 1965
cur table: 2048
epoch: 1000
next table: 2587
cur table: 2528
epoch: 1000
next table: 2014
cur table: 1965
epoch: 1000
next table: 2592
cur table: 2587
epoch: 1000
next table: 1946
cur table: 2014
epoch: 1000
next table: 2629
cur table: 2592
epoch: 1000
next table: 2609
cur table: 2629
epoch: 1000
next table: 2015
cur table: 1946
epoch: 1000
next table: 2610
cur table: 2609
epoch: 1000
next table: 1941
cur table: 2015
epoch: 1000
next table: 2601
cur table: 2610
epoch: 1000
next table: 2010
cur table: 1941
epoch: 1000
next table: 2590
cur table: 2601
epoch: 1000
next table: 1974
cur table: 2010
epoch: 1000
next table: 2570
cur table: 2590
epoch: 1000
next table: 2022
cur table: 1974
epoch: 1000
next table: 2591
cur table: 2570
epoch: 1000
next table: 1988
cur table: 2022
epoch: 1000
next table: 2567
cur table: 2591
epoch: 1000
next table: 2030
cur table: 1988
epoch: 1000
next table: 2559
cur table: 2567
epoch: 1000
next table: 2027
cur table: 2030
epoch: 1000
next table: 2550
cur table: 2559
epoch: 1000
next table: 2005
cur table: 2027
epoch: 1000
next table: 2580
cur table: 2550
epoch: 1000
next table: 2027
cur table: 2005
epoch: 1000
next table: 2521
cur table: 2580
epoch: 1000
next table: 1991
cur table: 2027
epoch: 1000
next table: 2592
cur table: 2521
epoch: 1000
next table: 2013
cur table: 1991
epoch: 1000
next table: 2584
cur table: 2592
epoch: 1000
next table: 1953
cur table: 2013
epoch: 1000
next table: 2628
cur table: 2584
epoch: 1000
next table: 1959
cur table: 1953
epoch: 1000
next table: 2594
cur table: 2628
epoch: 1000
next table: 1964
cur table: 1959
epoch: 1000
next table: 2610
cur table: 2594
epoch: 1000
next table: 2010
cur table: 1964
epoch: 1000
next table: 2577
cur table: 2610
epoch: 1000
next table: 1980
cur table: 2010
epoch: 1000
next table: 2576
cur table: 2577
epoch: 1000
next table: 2033
cur table: 1980
epoch: 1000
next table: 2531
cur table: 2576
epoch: 1000
next table: 1999
cur table: 2033
epoch: 1000
next table: 2567
cur table: 2531
epoch: 1000
next table: 2576
cur table: 2567
epoch: 1000
next table: 2012
cur table: 1999
epoch: 1000
next table: 2580
cur table: 2576
epoch: 1000
next table: 1987
cur table: 2012
epoch: 1000
next table: 2639
cur table: 2580
epoch: 1000
next table: 1959
cur table: 1987
epoch: 1000
next table: 2586
cur table: 2639
epoch: 1000
next table: 1972
cur table: 1959
epoch: 1000
next table: 2574
cur table: 2586
epoch: 1000
next table: 2021
cur table: 1972
epoch: 1000
next table: 2580
cur table: 2574
epoch: 1000
next table: 1974
cur table: 2021
epoch: 1000
next table: 2565
cur table: 2580
epoch: 1000
next table: 2018
cur table: 1974
epoch: 1000
next table: 2579
cur table: 2565
epoch: 1000
next table: 1973
cur table: 2018
epoch: 1000
next table: 2595
cur table: 2579
epoch: 1000
next table: 2010
cur table: 1973
epoch: 1000
next table: 2614
cur table: 2595
epoch: 1000
next table: 2001
cur table: 2010
epoch: 1000
next table: 2503
cur table: 2614
epoch: 1000
next table: 2074
cur table: 2001
epoch: 1000
next table: 2532
cur table: 2503
epoch: 1000
next table: 2014
cur table: 2074
epoch: 1000
next table: 2547
cur table: 2532
epoch: 1000
next table: 2055
cur table: 2014
epoch: 1000
next table: 2473
cur table: 2547
epoch: 1000
next table: 2060
cur table: 2055
epoch: 1000
next table: 2546
cur table: 2473
epoch: 1000
next table: 2046
cur table: 2060
epoch: 1000
next table: 2534
cur table: 2546
epoch: 1000
next table: 1998
cur table: 2046
epoch: 1000
next table: 2612
cur table: 2534
epoch: 1000
next table: 2000
cur table: 1998
epoch: 1000
next table: 2617
cur table: 2612
epoch: 1000
next table: 1976
cur table: 2000
epoch: 1000
next table: 2637
cur table: 2617
epoch: 1000
next table: 2615
cur table: 2637
epoch: 1000
next table: 2002
cur table: 1976
epoch: 1000
next table: 2615
cur table: 2615
epoch: 1000
next table: 1987
cur table: 2002
epoch: 1000
next table: 2653
cur table: 2615
epoch: 1000
next table: 1966
cur table: 1987
epoch: 1000
next table: 2628
cur table: 2653
epoch: 1000
next table: 1983
cur table: 1966
epoch: 1000
next table: 2532
cur table: 2628
epoch: 1000
next table: 2033
cur table: 1983
epoch: 1000
next table: 2439
cur table: 2532
epoch: 1000
next table: 2118
cur table: 2033
epoch: 1000
next table: 2501
cur table: 2439
epoch: 1000
next table: 2054
cur table: 2118
epoch: 1000
next table: 2574
cur table: 2501
epoch: 1000
next table: 2010
cur table: 2054
epoch: 1000
next table: 2595
cur table: 2574
epoch: 1000
next table: 2020
cur table: 2010
epoch: 1000
next table: 2621
cur table: 2595
epoch: 1000
next table: 1965
cur table: 2020
epoch: 1000
next table: 2653
cur table: 2621
epoch: 1000
next table: 1965
cur table: 1965
epoch: 1000
next table: 2605
cur table: 2653
epoch: 1000
next table: 1972
cur table: 1965
epoch: 1000
next table: 2652
cur table: 2605
epoch: 1000
next table: 1973
cur table: 1972
epoch: 1000
next table: 2555
cur table: 2652
epoch: 1000
next table: 2067
cur table: 1973
epoch: 1000
next table: 2489
cur table: 2555
epoch: 1000
next table: 2092
cur table: 2067
epoch: 1000
next table: 2474
cur table: 2489
epoch: 1000
next table: 2056
cur table: 2092
epoch: 1000
next table: 2504
cur table: 2474
epoch: 1000
next table: 2500
cur table: 2504
epoch: 1000
next table: 2047
cur table: 2056
epoch: 1000
next table: 2572
cur table: 2500
epoch: 1000
next table: 2022
cur table: 2047
epoch: 1000
next table: 2599
cur table: 2572
epoch: 1000
next table: 1967
cur table: 2022
epoch: 1000
next table: 2618
cur table: 2599
epoch: 1000
next table: 1983
cur table: 1967
epoch: 1000
next table: 2654
cur table: 2618
epoch: 1000
next table: 1948
cur table: 1983
epoch: 1000
next table: 2637
cur table: 2654
epoch: 1000
next table: 1969
cur table: 1948
epoch: 1000
next table: 2629
cur table: 2637
epoch: 1000
next table: 1974
cur table: 1969
epoch: 1000
next table: 2585
cur table: 2629
epoch: 1000
next table: 1998
cur table: 1974
epoch: 1000
next table: 2599
cur table: 2585
epoch: 1000
next table: 1997
cur table: 1998
epoch: 1000
next table: 2572
cur table: 2599
epoch: 1000
next table: 2019
cur table: 1997
epoch: 1000
next table: 2547
cur table: 2572
epoch: 1000
next table: 1993
cur table: 2019
epoch: 1000
next table: 2601
cur table: 2547
epoch: 1000
next table: 1985
cur table: 1993
epoch: 1000
next table: 2592
cur table: 2601
epoch: 1000
next table: 1992
cur table: 1985
epoch: 1000
next table: 2612
cur table: 2592
epoch: 1000
next table: 1987
cur table: 1992
epoch: 1000
next table: 2587
cur table: 2612
epoch: 1000
next table: 1987
cur table: 1987
epoch: 1000
next table: 2596
cur table: 2587
epoch: 1000
next table: 2010
cur table: 1987
epoch: 1000
next table: 2567
cur table: 2596
epoch: 1000
next table: 1979
cur table: 2010
epoch: 1000
next table: 2593
cur table: 2567
epoch: 1000
next table: 2019
cur table: 1979
epoch: 1000
next table: 2570
cur table: 2593
epoch: 1000
next table: 2013
cur table: 2019
epoch: 1000
next table: 2553
cur table: 2570
epoch: 1000
next table: 2006
cur table: 2013
epoch: 1000
next table: 2594
cur table: 2553
epoch: 1000
next table: 2013
cur table: 2006
epoch: 1000
next table: 2569
cur table: 2594
epoch: 1000
next table: 2481
cur table: 2569
epoch: 1000
next table: 2076
cur table: 2013
epoch: 1000
next table: 2502
cur table: 2481
epoch: 1000
next table: 2057
cur table: 2076
epoch: 1000
next table: 2488
cur table: 2502
epoch: 1000
next table: 2077
cur table: 2057
epoch: 1000
next table: 2498
cur table: 2488
epoch: 1000
next table: 2052
cur table: 2077
epoch: 1000
next table: 2544
cur table: 2498
epoch: 1000
next table: 2035
cur table: 2052
epoch: 1000
next table: 2547
cur table: 2544
epoch: 1000
next table: 2022
cur table: 2035
epoch: 1000
next table: 2582
cur table: 2547
epoch: 1000
next table: 2000
cur table: 2022
epoch: 1000
next table: 2569
cur table: 2582
epoch: 1000
next table: 2014
cur table: 2000
epoch: 1000
next table: 2601
cur table: 2569
epoch: 1000
next table: 2015
cur table: 2014
epoch: 1000
next table: 2533
cur table: 2601
epoch: 1000
next table: 2002
cur table: 2015
epoch: 1000
next table: 2567
cur table: 2533
epoch: 1000
next table: 2012
cur table: 2002
epoch: 1000
next table: 2554
cur table: 2567
epoch: 1000
next table: 1989
cur table: 2012
epoch: 1000
next table: 2607
cur table: 2554
epoch: 1000
next table: 2020
cur table: 1989
epoch: 1000
next table: 2536
cur table: 2607
epoch: 1000
next table: 2023
cur table: 2020
epoch: 1000
next table: 2541
cur table: 2536
epoch: 1000
next table: 2584
cur table: 2541
epoch: 1000
next table: 1998
cur table: 2023
epoch: 1000
next table: 2610
cur table: 2584
epoch: 1000
next table: 1974
cur table: 1998
epoch: 1000
next table: 2602
cur table: 2610
epoch: 1000
next table: 2000
cur table: 1974
epoch: 1000
next table: 2579
cur table: 2602
epoch: 1000
next table: 1978
cur table: 2000
epoch: 1000
next table: 2576
cur table: 2579
epoch: 1000
next table: 2012
cur table: 1978
epoch: 1000
next table: 2627
cur table: 2576
epoch: 1000
next table: 1989
cur table: 2012
epoch: 1000
next table: 2599
cur table: 2627
epoch: 1000
next table: 2015
cur table: 1989
epoch: 1000
next table: 2634
cur table: 2599
epoch: 1000
next table: 1971
cur table: 2015
epoch: 1000
next table: 2582
cur table: 2634
epoch: 1000
next table: 2027
cur table: 1971
epoch: 1000
next table: 2538
cur table: 2582
epoch: 1000
next table: 2024
cur table: 2027
epoch: 1000
next table: 2563
cur table: 2538
epoch: 1000
next table: 2041
cur table: 2024
epoch: 1000
next table: 2506
cur table: 2563
epoch: 1000
next table: 2039
cur table: 2041
epoch: 1000
next table: 2565
cur table: 2506
epoch: 1000
next table: 2010
cur table: 2039
epoch: 1000
next table: 2596
cur table: 2565
epoch: 1000
next table: 1997
cur table: 2010
epoch: 1000
next table: 2586
cur table: 2596
epoch: 1000
next table: 1994
cur table: 1997
epoch: 1000
next table: 2592
cur table: 2586
epoch: 1000
next table: 2025
cur table: 1994
epoch: 1000
next table: 2545
cur table: 2592
epoch: 1000
next table: 2029
cur table: 2025
epoch: 1000
next table: 2554
cur table: 2545
epoch: 1000
next table: 2038
cur table: 2029
epoch: 1000
next table: 2560
cur table: 2554
epoch: 1000
next table: 2028
cur table: 2038
epoch: 1000
next table: 2550
cur table: 2560
epoch: 1000
next table: 2578
cur table: 2550
epoch: 1000
next table: 2001
cur table: 2028
epoch: 1000
next table: 2579
cur table: 2578
epoch: 1000
next table: 2028
cur table: 2001
epoch: 1000
next table: 2533
cur table: 2579
epoch: 1000
next table: 2021
cur table: 2028
epoch: 1000
next table: 2591
cur table: 2533
epoch: 1000
next table: 2003
cur table: 2021
epoch: 1000
next table: 2602
cur table: 2591
epoch: 1000
next table: 1997
cur table: 2003
epoch: 1000
next table: 2571
cur table: 2602
epoch: 1000
next table: 2007
cur table: 1997
epoch: 1000
next table: 2615
cur table: 2571
epoch: 1000
next table: 1978
cur table: 2007
epoch: 1000
next table: 2584
cur table: 2615
epoch: 1000
next table: 2002
cur table: 1978
epoch: 1000
next table: 2578
cur table: 2584
epoch: 1000
next table: 2018
cur table: 2002
epoch: 1000
next table: 2586
cur table: 2578
epoch: 1000
next table: 1977
cur table: 2018
epoch: 1000
next table: 2602
cur table: 2586
epoch: 1000
next table: 2011
cur table: 1977
epoch: 1000
next table: 2547
cur table: 2602
epoch: 1000
next table: 1997
cur table: 2011
epoch: 1000
next table: 2622
cur table: 2547
epoch: 1000
next table: 1991
cur table: 1997
epoch: 1000
next table: 2592
cur table: 2622
epoch: 1000
next table: 1988
cur table: 1991
epoch: 1000
next table: 2621
cur table: 2592
epoch: 1000
next table: 1983
cur table: 1988
epoch: 1000
next table: 2597
cur table: 2621
epoch: 1000
next table: 2014
cur table: 1983
epoch: 1000
next table: 2564
cur table: 2597
epoch: 1000
next table: 1995
cur table: 2014
epoch: 1000
next table: 2575
cur table: 2564
epoch: 1000
next table: 1994
cur table: 1995
epoch: 1000
next table: 2569
cur table: 2575
epoch: 1000
next table: 1990
cur table: 1994
epoch: 1000
next table: 2587
cur table: 2569
epoch: 1000
next table: 1982
cur table: 1990
epoch: 1000
next table: 2602
cur table: 2587
epoch: 1000
next table: 2585
cur table: 2602
epoch: 1000
next table: 1964
cur table: 1982
epoch: 1000
next table: 2614
cur table: 2585
epoch: 1000
next table: 1972
cur table: 1964
epoch: 1000
next table: 2634
cur table: 2614
epoch: 1000
next table: 1948
cur table: 1972
epoch: 1000
next table: 2644
cur table: 2634
epoch: 1000
next table: 1959
cur table: 1948
epoch: 1000
next table: 2635
cur table: 2644
epoch: 1000
next table: 1950
cur table: 1959
epoch: 1000
next table: 2645
cur table: 2635
epoch: 1000
next table: 1955
cur table: 1950
epoch: 1000
next table: 2649
cur table: 2645
epoch: 1000
next table: 1948
cur table: 1955
epoch: 1000
next table: 2642
cur table: 2649
epoch: 1000
next table: 1973
cur table: 1948
epoch: 1000
next table: 2631
cur table: 2642
epoch: 1000
next table: 1958
cur table: 1973
epoch: 1000
next table: 2624
cur table: 2631
epoch: 1000
next table: 1971
cur table: 1958
epoch: 1000
next table: 2595
cur table: 2624
epoch: 1000
next table: 1978
cur table: 1971
epoch: 1000
next table: 2595
cur table: 2595
epoch: 1000
next table: 2004
cur table: 1978
epoch: 1000
next table: 2590
cur table: 2595
epoch: 1000
next table: 1963
cur table: 2004
epoch: 1000
next table: 2637
cur table: 2590
epoch: 1000
next table: 1968
cur table: 1963
epoch: 1000
next table: 2588
cur table: 2637
epoch: 1000
next table: 1969
cur table: 1968
epoch: 1000
next table: 2630
cur table: 2588
epoch: 1000
next table: 1971
cur table: 1969
epoch: 1000
next table: 2611
cur table: 2630
epoch: 1000
next table: 1977
cur table: 1971
epoch: 1000
next table: 2644
cur table: 2611
epoch: 1000
next table: 1960
cur table: 1977
epoch: 1000
next table: 2598
cur table: 2644
epoch: 1000
next table: 1996
cur table: 1960
epoch: 1000
next table: 2612
cur table: 2598
epoch: 1000
next table: 1971
cur table: 1996
epoch: 1000
next table: 2600
cur table: 2612
epoch: 1000
next table: 1995
cur table: 1971
epoch: 1000
next table: 2566
cur table: 2600
epoch: 1000
next table: 1986
cur table: 1995
epoch: 1000
next table: 2586
cur table: 2566
epoch: 1000
next table: 1995
cur table: 1986
epoch: 1000
next table: 2588
cur table: 2586
epoch: 1000
next table: 1974
cur table: 1995
epoch: 1000
next table: 2607
cur table: 2588
epoch: 1000
next table: 1977
cur table: 1974
epoch: 1000
next table: 2585
cur table: 2607
epoch: 1000
next table: 1991
cur table: 1977
epoch: 1000
next table: 2630
cur table: 2585
epoch: 1000
next table: 1983
cur table: 1991
epoch: 1000
next table: 2597
cur table: 2630
epoch: 1000
next table: 1959
cur table: 1983
epoch: 1000
next table: 2636
cur table: 2597
epoch: 1000
next table: 1945
cur table: 1959
epoch: 1000
next table: 2662
cur table: 2636
epoch: 1000
next table: 1944
cur table: 1945
epoch: 1000
next table: 2658
cur table: 2662
epoch: 1000
next table: 1965
cur table: 1944
epoch: 1000
next table: 2624
cur table: 2658
epoch: 1000
next table: 1991
cur table: 1965
epoch: 1000
next table: 2575
cur table: 2624
epoch: 1000
next table: 2041
cur table: 1991
epoch: 1000
next table: 2512
cur table: 2575
epoch: 1000
next table: 2570
cur table: 2512
epoch: 1000
next table: 1995
cur table: 2041
epoch: 1000
next table: 2519
cur table: 2570
epoch: 1000
next table: 2052
cur table: 1995
epoch: 1000
next table: 2564
cur table: 2519
epoch: 1000
next table: 1997
cur table: 2052
epoch: 1000
next table: 2514
cur table: 2564
epoch: 1000
next table: 2042
cur table: 1997
epoch: 1000
next table: 2601
cur table: 2514
epoch: 1000
next table: 1980
cur table: 2042
epoch: 1000
next table: 2581
cur table: 2601
epoch: 1000
next table: 2013
cur table: 1980
epoch: 1000
next table: 2604
cur table: 2581
epoch: 1000
next table: 1953
cur table: 2013
epoch: 1000
next table: 2601
cur table: 2604
epoch: 1000
next table: 1971
cur table: 1953
epoch: 1000
next table: 2648
cur table: 2601
epoch: 1000
next table: 1974
cur table: 1971
epoch: 1000
next table: 2603
cur table: 2648
epoch: 1000
next table: 1979
cur table: 1974
epoch: 1000
next table: 2605
cur table: 2603
epoch: 1000
next table: 1991
cur table: 1979
epoch: 1000
next table: 2592
cur table: 2605
epoch: 1000
next table: 2006
cur table: 1991
epoch: 1000
next table: 2569
cur table: 2592
epoch: 1000
next table: 2012
cur table: 2006
epoch: 1000
next table: 2600
cur table: 2569
epoch: 1000
next table: 1987
cur table: 2012
epoch: 1000
next table: 2602
cur table: 2600
epoch: 1000
next table: 2002
cur table: 1987
epoch: 1000
next table: 2598
cur table: 2602
epoch: 1000
next table: 2015
cur table: 2002
epoch: 1000
next table: 2568
cur table: 2598
epoch: 1000
next table: 2055
cur table: 2015
epoch: 1000
next table: 2481
cur table: 2568
epoch: 1000
next table: 2097
cur table: 2055
epoch: 1000
next table: 2468
cur table: 2481
epoch: 1000
next table: 2457
cur table: 2468
epoch: 1000
next table: 2102
cur table: 2097
epoch: 1000
next table: 2507
cur table: 2457
epoch: 1000
next table: 2054
cur table: 2102
epoch: 1000
next table: 2532
cur table: 2507
epoch: 1000
next table: 2025
cur table: 2054
epoch: 1000
next table: 2541
cur table: 2532
epoch: 1000
next table: 2038
cur table: 2025
epoch: 1000
next table: 2544
cur table: 2541
epoch: 1000
next table: 2010
cur table: 2038
epoch: 1000
next table: 2578
cur table: 2544
epoch: 1000
next table: 2010
cur table: 2010
epoch: 1000
next table: 2580
cur table: 2578
epoch: 1000
next table: 1989
cur table: 2010
epoch: 1000
next table: 2595
cur table: 2580
epoch: 1000
next table: 1988
cur table: 1989
epoch: 1000
next table: 2617
cur table: 2595
epoch: 1000
next table: 1980
cur table: 1988
epoch: 1000
next table: 2626
cur table: 2617
epoch: 1000
next table: 1970
cur table: 1980
epoch: 1000
next table: 2636
cur table: 2626
epoch: 1000
next table: 1951
cur table: 1970
epoch: 1000
next table: 2641
cur table: 2636
epoch: 1000
next table: 1972
cur table: 1951
epoch: 1000
next table: 2621
cur table: 2641
epoch: 1000
next table: 1949
cur table: 1972
epoch: 1000
next table: 2641
cur table: 2621
epoch: 1000
next table: 1979
cur table: 1949
epoch: 1000
next table: 2618
cur table: 2641
epoch: 1000
next table: 1957
cur table: 1979
epoch: 1000
next table: 2613
cur table: 2618
epoch: 1000
next table: 1957
cur table: 1957
epoch: 1000
next table: 2634
cur table: 2613
epoch: 1000
next table: 1960
cur table: 1957
epoch: 1000
next table: 2599
cur table: 2634
epoch: 1000
next table: 2016
cur table: 1960
epoch: 1000
next table: 2514
cur table: 2599
epoch: 1000
next table: 2000
cur table: 2016
epoch: 1000
next table: 2561
cur table: 2514
epoch: 1000
next table: 2578
cur table: 2561
epoch: 1000
next table: 1990
cur table: 2000
epoch: 1000
next table: 2572
cur table: 2578
epoch: 1000
next table: 1985
cur table: 1990
epoch: 1000
next table: 2548
cur table: 2572
epoch: 1000
next table: 2021
cur table: 1985
epoch: 1000
next table: 2528
cur table: 2548
epoch: 1000
next table: 2023
cur table: 2021
epoch: 1000
next table: 2521
cur table: 2528
epoch: 1000
next table: 2047
cur table: 2023
epoch: 1000
next table: 2564
cur table: 2521
epoch: 1000
next table: 2003
cur table: 2047
epoch: 1000
next table: 2554
cur table: 2564
epoch: 1000
next table: 2041
cur table: 2003
epoch: 1000
next table: 2552
cur table: 2554
epoch: 1000
next table: 2028
cur table: 2041
epoch: 1000
next table: 2520
cur table: 2552
epoch: 1000
next table: 2056
cur table: 2028
epoch: 1000
next table: 2524
cur table: 2520
epoch: 1000
next table: 2045
cur table: 2056
epoch: 1000
next table: 2533
cur table: 2524
epoch: 1000
next table: 2059
cur table: 2045
epoch: 1000
next table: 2489
cur table: 2533
epoch: 1000
next table: 2061
cur table: 2059
epoch: 1000
next table: 2523
cur table: 2489
epoch: 1000
next table: 2025
cur table: 2061
epoch: 1000
next table: 2540
cur table: 2523
epoch: 1000
next table: 2582
cur table: 2540
epoch: 1000
next table: 2014
cur table: 2025
epoch: 1000
next table: 2587
cur table: 2582
epoch: 1000
next table: 2006
cur table: 2014
epoch: 1000
next table: 2526
cur table: 2587
epoch: 1000
next table: 2055
cur table: 2006
epoch: 1000
next table: 2614
cur table: 2526
epoch: 1000
next table: 1959
cur table: 2055
epoch: 1000
next table: 2536
cur table: 2614
epoch: 1000
next table: 2061
cur table: 1959
epoch: 1000
next table: 2546
cur table: 2536
epoch: 1000
next table: 2015
cur table: 2061
epoch: 1000
next table: 2520
cur table: 2546
epoch: 1000
next table: 2066
cur table: 2015
epoch: 1000
next table: 2509
cur table: 2520
epoch: 1000
next table: 2037
cur table: 2066
epoch: 1000
next table: 2496
cur table: 2509
epoch: 1000
next table: 2050
cur table: 2037
epoch: 1000
next table: 2540
cur table: 2496
epoch: 1000
next table: 2005
cur table: 2050
epoch: 1000
next table: 2544
cur table: 2540
epoch: 1000
next table: 2060
cur table: 2005
epoch: 1000
next table: 2519
cur table: 2544
epoch: 1000
next table: 2034
cur table: 2060
epoch: 1000
next table: 2526
cur table: 2519
epoch: 1000
next table: 2505
cur table: 2526
epoch: 1000
next table: 2059
cur table: 2034
epoch: 1000
next table: 2486
cur table: 2505
epoch: 1000
next table: 2068
cur table: 2059
epoch: 1000
next table: 2528
cur table: 2486
epoch: 1000
next table: 2057
cur table: 2068
epoch: 1000
next table: 2574
cur table: 2528
epoch: 1000
next table: 1996
cur table: 2057
epoch: 1000
next table: 2600
cur table: 2574
epoch: 1000
next table: 2003
cur table: 1996
epoch: 1000
next table: 2569
cur table: 2600
epoch: 1000
next table: 2008
cur table: 2003
epoch: 1000
next table: 2576
cur table: 2569
epoch: 1000
next table: 2004
cur table: 2008
epoch: 1000
next table: 2602
cur table: 2576
epoch: 1000
next table: 1978
cur table: 2004
epoch: 1000
next table: 2615
cur table: 2602
epoch: 1000
next table: 2010
cur table: 1978
epoch: 1000
next table: 2484
cur table: 2615
epoch: 1000
next table: 2066
[...]
next table: 1930
cur table: 1926
epoch: 1000
next table: 2667
cur table: 2650
epoch: 1000
next table: 1928
cur table: 1930
epoch: 1000
next table: 2664
cur table: 2667
epoch: 1000
next table: 1935
cur table: 1928
epoch: 1000
next table: 2651
cur table: 2664
epoch: 1000
next table: 1928
cur table: 1935
epoch: 1000
next table: 2651
cur table: 2651
epoch: 1000
next table: 1950
cur table: 1928
epoch: 1000
next table: 2594
cur table: 2651
epoch: 1000
next table: 1953
cur table: 1950
epoch: 1000
next table: 2622
cur table: 2594
epoch: 1000
next table: 1949
cur table: 1953
epoch: 1000
next table: 2606
cur table: 2622
epoch: 1000
next table: 1968
cur table: 1949
epoch: 1000
next table: 2574
cur table: 2606
epoch: 1000
next table: 1989
cur table: 1968
epoch: 1000
next table: 2517
cur table: 2574
epoch: 1000
next table: 2055
cur table: 1989
epoch: 1000
next table: 2497
cur table: 2517
epoch: 1000
next table: 2008
cur table: 2055
epoch: 1000
next table: 2542
cur table: 2497
epoch: 1000
next table: 1998
cur table: 2008
epoch: 1000
next table: 2555
cur table: 2542
epoch: 1000
next table: 1987
cur table: 1998
epoch: 1000
next table: 2541
cur table: 2555
epoch: 1000
next table: 2038
cur table: 1987
epoch: 1000
next table: 2517
cur table: 2541
epoch: 1000
next table: 2488
cur table: 2517
epoch: 1000
next table: 2040
cur table: 2038
epoch: 1000
next table: 2472
cur table: 2488
epoch: 1000
next table: 2062
cur table: 2040
epoch: 1000
next table: 2467
cur table: 2472
epoch: 1000
next table: 2036
cur table: 2062
epoch: 1000
next table: 2556
cur table: 2467
epoch: 1000
next table: 1975
cur table: 2036
epoch: 1000
next table: 2552
cur table: 2556
epoch: 1000
next table: 2007
cur table: 1975
epoch: 1000
next table: 2505
cur table: 2552
epoch: 1000
next table: 2046
cur table: 2007
epoch: 1000
next table: 2478
cur table: 2505
epoch: 1000
next table: 2057
cur table: 2046
epoch: 1000
next table: 2412
cur table: 2478
epoch: 1000
next table: 2059
cur table: 2057
epoch: 1000
next table: 2527
cur table: 2412
epoch: 1000
next table: 1986
cur table: 2059
epoch: 1000
next table: 2565
cur table: 2527
epoch: 1000
next table: 1970
cur table: 1986
epoch: 1000
next table: 2579
cur table: 2565
epoch: 1000
next table: 2587
cur table: 2579
epoch: 1000
next table: 1972
cur table: 1970
Heartbeat CPU 0 instructions: 100000001 cycles: 119578771 heartbeat IPC: 0.481674 cumulative IPC: 0.476122 (Simulation time: 0 hr 28 min 22 sec) 
Finished CPU 0 instructions: 50000003 cycles: 105015170 cumulative IPC: 0.476122 (Simulation time: 0 hr 28 min 22 sec) 

ChampSim completed all CPUs

Region of Interest Statistics

CPU 0 cumulative IPC: 0.476122 instructions: 50000003 cycles: 105015170
ITLB TOTAL     ACCESS:    6718564  HIT:    6718564  MISS:          0  HIT %:        100  MISS %:          0   MPKI: 0
ITLB LOAD TRANSLATION ACCESS:    6718564  HIT:    6718564  MISS:          0  HIT %:        100  MISS %:          0   MPKI: 0
ITLB PREFETCH  REQUESTED:          0  ISSUED:          0  USEFUL:          0  USELESS:          0
ITLB USEFUL LOAD PREFETCHES:          0 PREFETCH ISSUED TO LOWER LEVEL:          0  ACCURACY: -nan
ITLB TIMELY PREFETCHES:          0 LATE PREFETCHES: 0 DROPPED PREFETCHES: 0
ITLB PREFETCHES SAME FILL-ORIGIN LEVEL: 0 DIFFERENT FILL-ORIGIN LEVEL: 0
ITLB AVERAGE MISS LATENCY: -nan cycles
ITLB RQ	ACCESS:    8678077	FORWARD:          0	MERGED:    1959513	TO_CACHE:    6718564

Revised Interactions: positive negative neutral
ITLB_interactions 0 0 0 -nan -nan -nan
DTLB TOTAL     ACCESS:    9501703  HIT:    9433277  MISS:      68426  HIT %:    99.2799  MISS %:   0.720145   MPKI: 1.36852
DTLB LOAD TRANSLATION ACCESS:    9501703  HIT:    9433277  MISS:      68426  HIT %:    99.2799  MISS %:   0.720145   MPKI: 1.36852
DTLB PREFETCH  REQUESTED:          0  ISSUED:          0  USEFUL:          0  USELESS:          0
DTLB USEFUL LOAD PREFETCHES:          0 PREFETCH ISSUED TO LOWER LEVEL:          0  ACCURACY: -nan
DTLB TIMELY PREFETCHES:          0 LATE PREFETCHES: 0 DROPPED PREFETCHES: 0
DTLB PREFETCHES SAME FILL-ORIGIN LEVEL: 0 DIFFERENT FILL-ORIGIN LEVEL: 0
DTLB AVERAGE MISS LATENCY: 117.491 cycles
DTLB RQ	ACCESS:   14045488	FORWARD:          0	MERGED:    4516384	TO_CACHE:    9529104

Revised Interactions: positive negative neutral
DTLB_interactions 0 0 0 -nan -nan -nan
STLB TOTAL     ACCESS:      68426  HIT:      31298  MISS:      37128  HIT %:    45.7399  MISS %:    54.2601   MPKI: 0.74256
STLB LOAD TRANSLATION ACCESS:      68426  HIT:      31298  MISS:      37128  HIT %:    45.7399  MISS %:    54.2601   MPKI: 0.74256
STLB PREFETCH  REQUESTED:          0  ISSUED:          0  USEFUL:          0  USELESS:          0
STLB USEFUL LOAD PREFETCHES:          0 PREFETCH ISSUED TO LOWER LEVEL:          0  ACCURACY: -nan
STLB TIMELY PREFETCHES:          0 LATE PREFETCHES: 0 DROPPED PREFETCHES: 0
STLB PREFETCHES SAME FILL-ORIGIN LEVEL: 0 DIFFERENT FILL-ORIGIN LEVEL: 0
STLB AVERAGE MISS LATENCY: 198.2 cycles
STLB RQ	ACCESS:      68426	FORWARD:          0	MERGED:          0	TO_CACHE:      68426

Revised Interactions: positive negative neutral
STLB_interactions 0 0 0 -nan -nan -nan
STLB Hit, L1D data hit: 0
STLB Hit, L2C data hit: 0
STLB Hit, LLC data hit: 0
STLB Hit, LLC data miss: 0
STLB STLB hints to L2: 0
L1D TOTAL     ACCESS:   13851184  HIT:    9931463  MISS:    3919721  HIT %:    71.7012  MISS %:    28.2988   MPKI: 78.3944
L1D LOAD      ACCESS:    4804587  HIT:    4210602  MISS:     593985  HIT %:    87.6371  MISS %:    12.3629   MPKI: 11.8797
L1D RFO       ACCESS:    9046597  HIT:    5720861  MISS:    3325736  HIT %:    63.2377  MISS %:    36.7623   MPKI: 66.5147
L1D PREFETCH  REQUESTED:          0  ISSUED:          0  USEFUL:          0  USELESS:          0
L1D USEFUL LOAD PREFETCHES:          0 PREFETCH ISSUED TO LOWER LEVEL:          0  ACCURACY: -nan
L1D TIMELY PREFETCHES:          0 LATE PREFETCHES: 0 DROPPED PREFETCHES: 0
L1D PREFETCHES SAME FILL-ORIGIN LEVEL: 0 DIFFERENT FILL-ORIGIN LEVEL: 0
L1D AVERAGE MISS LATENCY: 348.776 cycles
L1D RQ	ACCESS:   12170383	FORWARD:          0	MERGED:    6639189	TO_CACHE:    4951919
L1D WQ	ACCESS:    9208485	FORWARD:     579275	MERGED:     114916	TO_CACHE:    9093569

Revised Interactions: positive negative neutral
L1D_interactions 0 0 0 -nan -nan -nan
L1D UNIQUE REGIONS ACCESSED: 0
L1D REGIONS CONFLICTS: 0
L1D Cross Page Prefetch Requests: 0
L1D Same Page Prefetch Requests: 0
L1D ROI Sum of L1D PQ occupancy: 0
L1D PREFETCHES PUSHED FROM L2C: 0
L1I TOTAL     ACCESS:    8678075  HIT:    8678075  MISS:          0  HIT %:        100  MISS %:          0   MPKI: 0
L1I LOAD      ACCESS:    8678075  HIT:    8678075  MISS:          0  HIT %:        100  MISS %:          0   MPKI: 0
L1I PREFETCH  REQUESTED:          0  ISSUED:          0  USEFUL:          0  USELESS:          0
L1I USEFUL LOAD PREFETCHES:          0 PREFETCH ISSUED TO LOWER LEVEL:          0  ACCURACY: -nan
L1I TIMELY PREFETCHES:          0 LATE PREFETCHES: 0 DROPPED PREFETCHES: 0
L1I PREFETCHES SAME FILL-ORIGIN LEVEL: 0 DIFFERENT FILL-ORIGIN LEVEL: 0
L1I AVERAGE MISS LATENCY: -nan cycles
L1I RQ	ACCESS:   12487499	FORWARD:          0	MERGED:    3809422	TO_CACHE:    8678077

Revised Interactions: positive negative neutral
L1I_interactions 0 0 0 -nan -nan -nan
BTB TOTAL     ACCESS:     896750  HIT:     896744  MISS:          6  HIT %:    99.9993  MISS %: 0.000669083   MPKI: 0.00012
BTB BRANCH_DIRECT_JUMP	ACCESS:     145480  HIT:     145479  MISS:          1
BTB BRANCH_INDIRECT	ACCESS:          0  HIT:          0  MISS:          0
BTB BRANCH_CONDITIONAL	ACCESS:     751270  HIT:     751265  MISS:          5
BTB BRANCH_DIRECT_CALL	ACCESS:          0  HIT:          0  MISS:          0
BTB BRANCH_INDIRECT_CALL	ACCESS:          0  HIT:          0  MISS:          0
BTB BRANCH_RETURN	ACCESS:          0  HIT:          0  MISS:          0
BTB BRANCH_OTHER ACCESS:          0  HIT:          0  MISS:          0

L2C TOTAL     ACCESS:    7386168  HIT:    4839847  MISS:    2546321  HIT %:    65.5258  MISS %:    34.4742   MPKI: 50.9264
L2C LOAD      ACCESS:     593985  HIT:     102116  MISS:     491869  HIT %:    17.1917  MISS %:    82.8083   MPKI: 9.83738
L2C DATA LOAD MPKI: 9.83738
L2C INSTRUCTION LOAD MPKI: 0
L2C RFO       ACCESS:    3325733  HIT:    1471252  MISS:    1854481  HIT %:    44.2384  MISS %:    55.7616   MPKI: 37.0896
L2C PREFETCH  ACCESS:     103580  HIT:       1490  MISS:     102090  HIT %:     1.4385  MISS %:    98.5615   MPKI: 2.0418
L2C DATA PREFETCH MPKI: 2.0418
L2C INSTRUCTION PREFETCH MPKI: 0
L2C WRITEBACK ACCESS:    3325740  HIT:    3232729  MISS:      93011  HIT %:    97.2033  MISS %:     2.7967   MPKI: 1.86022
L2C LOAD TRANSLATION ACCESS:      37130  HIT:      32260  MISS:       4870  HIT %:    86.8839  MISS %:    13.1161   MPKI: 0.0974
L2C PREFETCH  REQUESTED:    3691624  ISSUED:    3691624  USEFUL:     102084  USELESS:          6
L2C USEFUL LOAD PREFETCHES:     102084 PREFETCH ISSUED TO LOWER LEVEL:    2007570  ACCURACY: 5.08495
L2C TIMELY PREFETCHES:     102084 LATE PREFETCHES: 77510 DROPPED PREFETCHES: 0
L2C PREFETCHES SAME FILL-ORIGIN LEVEL: 179600 DIFFERENT FILL-ORIGIN LEVEL: 1827970
L2C AVERAGE MISS LATENCY: 517.678 cycles
L2C RQ	ACCESS:    3956865	FORWARD:          0	MERGED:          0	TO_CACHE:    3956862
L2C WQ	ACCESS:    3325740	FORWARD:          3	MERGED:          0	TO_CACHE:    3325740
L2C PQ	ACCESS:    3691624	FORWARD:          0	MERGED:    1466071	TO_CACHE:    2225553

Revised Interactions: positive negative neutral
L2C_interactions 99880 11 2150 97.8822 0.01078 2.107
L2C Instructions Evicting Data 0
L2C Translations Evicting Data 4867
L2C Data Evicting Data 2443814
L2C Instructions Evicting Instructions 0
L2C Translations Evicting Instructions 0
L2C Data Evicting Instructions 0
L2C Instructions Evicting Translations 0
L2C Translations Evicting Translations 3
L2C Data Evicting Translations 4626
L2C Dense regions hint from L2: 0
PSCL5 TOTAL     ACCESS:      37128  HIT:      37128  MISS:          0  HIT %:        100  MISS %:          0   MPKI: 0
PSCL5 LOAD TRANSLATION ACCESS:      37128  HIT:      37128  MISS:          0  HIT %:        100  MISS %:          0   MPKI: 0
PSCL5 PREFETCH  REQUESTED:          0  ISSUED:          0  USEFUL:          0  USELESS:          0
PSCL5 USEFUL LOAD PREFETCHES:          0 PREFETCH ISSUED TO LOWER LEVEL:          0  ACCURACY: -nan
PSCL5 TIMELY PREFETCHES:          0 LATE PREFETCHES: 0 DROPPED PREFETCHES: 0
PSCL5 PREFETCHES SAME FILL-ORIGIN LEVEL: 0 DIFFERENT FILL-ORIGIN LEVEL: 0

Revised Interactions: positive negative neutral
PSCL5_interactions 0 0 0 -nan -nan -nan
PSCL4 TOTAL     ACCESS:      37128  HIT:      37128  MISS:          0  HIT %:        100  MISS %:          0   MPKI: 0
PSCL4 LOAD TRANSLATION ACCESS:      37128  HIT:      37128  MISS:          0  HIT %:        100  MISS %:          0   MPKI: 0
PSCL4 PREFETCH  REQUESTED:          0  ISSUED:          0  USEFUL:          0  USELESS:          0
PSCL4 USEFUL LOAD PREFETCHES:          0 PREFETCH ISSUED TO LOWER LEVEL:          0  ACCURACY: -nan
PSCL4 TIMELY PREFETCHES:          0 LATE PREFETCHES: 0 DROPPED PREFETCHES: 0
PSCL4 PREFETCHES SAME FILL-ORIGIN LEVEL: 0 DIFFERENT FILL-ORIGIN LEVEL: 0

Revised Interactions: positive negative neutral
PSCL4_interactions 0 0 0 -nan -nan -nan
PSCL3 TOTAL     ACCESS:      37128  HIT:      37128  MISS:          0  HIT %:        100  MISS %:          0   MPKI: 0
PSCL3 LOAD TRANSLATION ACCESS:      37128  HIT:      37128  MISS:          0  HIT %:        100  MISS %:          0   MPKI: 0
PSCL3 PREFETCH  REQUESTED:          0  ISSUED:          0  USEFUL:          0  USELESS:          0
PSCL3 USEFUL LOAD PREFETCHES:          0 PREFETCH ISSUED TO LOWER LEVEL:          0  ACCURACY: -nan
PSCL3 TIMELY PREFETCHES:          0 LATE PREFETCHES: 0 DROPPED PREFETCHES: 0
PSCL3 PREFETCHES SAME FILL-ORIGIN LEVEL: 0 DIFFERENT FILL-ORIGIN LEVEL: 0

Revised Interactions: positive negative neutral
PSCL3_interactions 0 0 0 -nan -nan -nan
PSCL2 TOTAL     ACCESS:      37128  HIT:      37090  MISS:         38  HIT %:    99.8977  MISS %:   0.102349   MPKI: 0.00076
PSCL2 LOAD TRANSLATION ACCESS:      37128  HIT:      37090  MISS:         38  HIT %:    99.8977  MISS %:   0.102349   MPKI: 0.00076
PSCL2 PREFETCH  REQUESTED:          0  ISSUED:          0  USEFUL:          0  USELESS:          0
PSCL2 USEFUL LOAD PREFETCHES:          0 PREFETCH ISSUED TO LOWER LEVEL:          0  ACCURACY: -nan
PSCL2 TIMELY PREFETCHES:          0 LATE PREFETCHES: 0 DROPPED PREFETCHES: 0
PSCL2 PREFETCHES SAME FILL-ORIGIN LEVEL: 0 DIFFERENT FILL-ORIGIN LEVEL: 0

Revised Interactions: positive negative neutral
PSCL2_interactions 0 0 0 -nan -nan -nan
LLC TOTAL     ACCESS:    5261109  HIT:    2825216  MISS:    2435893  HIT %:       53.7  MISS %:       46.3   MPKI: 48.7179
LLC LOAD      ACCESS:     414359  HIT:     306499  MISS:     107860  HIT %:    73.9694  MISS %:    26.0306   MPKI: 2.1572
LLC RFO       ACCESS:    1854462  HIT:      72908  MISS:    1781554  HIT %:    3.93149  MISS %:    96.0685   MPKI: 35.6311
LLC PREFETCH  ACCESS:    1133281  HIT:     647140  MISS:     486141  HIT %:    57.1032  MISS %:    42.8968   MPKI: 9.72282
LLC WRITEBACK ACCESS:    1854137  HIT:    1798507  MISS:      55630  HIT %:    96.9997  MISS %:    3.00032   MPKI: 1.1126
LLC LOAD TRANSLATION ACCESS:       4870  HIT:        162  MISS:       4708  HIT %:    3.32649  MISS %:    96.6735   MPKI: 0.09416
LLC PREFETCH  REQUESTED:          0  ISSUED:          0  USEFUL:     306477  USELESS:     178947
LLC USEFUL LOAD PREFETCHES:     306477 PREFETCH ISSUED TO LOWER LEVEL:     570379  ACCURACY: 53.7322
LLC TIMELY PREFETCHES:     306477 LATE PREFETCHES: 84236 DROPPED PREFETCHES: 0
LLC PREFETCHES SAME FILL-ORIGIN LEVEL: 563182 DIFFERENT FILL-ORIGIN LEVEL: 0
LLC AVERAGE MISS LATENCY: 614.101 cycles
LLC RQ	ACCESS:    2273724	FORWARD:          0	MERGED:          0	TO_CACHE:    2273705
LLC WQ	ACCESS:    1854137	FORWARD:         19	MERGED:          0	TO_CACHE:    1854137
LLC PQ	ACCESS:    2007570	FORWARD:          0	MERGED:     203436	TO_CACHE:    1804134

Revised Interactions: positive negative neutral
LLC_interactions 306330 179568 136761 49.1971 28.8389 21.964
LLC Dense regions hint to LLC: 0

RAW hits: 866049
Loads Generated: 13036432
Loads sent to L1D: 12170383
Stores Generated: 9208468
Stores sent to L1D: 9208485
Major fault: 0 Minor fault: 40146
Allocated PAGES: 40146
 All Calls: 1181388
 Critical Calls: 1181388
------------------
Depth Distribution
------------------
depth 0: 0
depth 1: 1230449
depth 2: 1203990
depth 3: 1161417
depth 4: 1115326
depth 5: 1054194
depth 6: 860809
depth 7: 663454
depth 8: 489386
depth 9: 264540
depth 10: 60825
depth 11: 7005
depth 12: 925
depth 13: 138
depth 14: 5
depth 15: 0
depth 16: 0
depth 17: 0
depth 18: 0
depth 19: 0
depth 20: 0
depth 21: 0
depth 22: 0
depth 23: 0
depth 24: 0
depth 25: 0
depth 26: 0
depth 27: 0
depth 28: 0
depth 29: 0
Total: 8112463
-----------------------------
-----------------------------
	Captured at Filter
-----------------------------
depth 0: 0
depth 1: 7117
depth 2: 5317
depth 3: 2933
depth 4: 2127
depth 5: 2005
depth 6: 1694
depth 7: 1340
depth 8: 1030
depth 9: 565
depth 10: 150
depth 11: 13
depth 12: 3
depth 13: 0
depth 14: 0
depth 15: 0
depth 16: 0
depth 17: 0
depth 18: 0
depth 19: 0
depth 20: 0
depth 21: 0
depth 22: 0
depth 23: 0
depth 24: 0
depth 25: 0
depth 26: 0
depth 27: 0
depth 28: 0
depth 29: 0
-----------------------------
-----------------------------
		Lost at Page
-----------------------------
depth 0: 0
depth 1: 37018
depth 2: 35332
depth 3: 51114
depth 4: 67374
depth 5: 83036
depth 6: 84564
depth 7: 80329
depth 8: 75958
depth 9: 54842
depth 10: 16194
depth 11: 2048
depth 12: 351
depth 13: 57
depth 14: 2
depth 15: 0
depth 16: 0
depth 17: 0
depth 18: 0
depth 19: 0
depth 20: 0
depth 21: 0
depth 22: 0
depth 23: 0
depth 24: 0
depth 25: 0
depth 26: 0
depth 27: 0
depth 28: 0
depth 29: 0
-----------------------------
-----------------------------
	Lost due to PQ Size
-----------------------------
147994
-----------------------------
ST read accesses: 584694
ST write accesses: 9291
PT read accesses: 21216932
PT write accesses: 876042
FILTER read accesses: 6841110
FILTER write accesses: 3158333
GHR read accesses: 1297515
GHR write accesses: 233013
GHR counter read accesses: 18070886
GHR counter write accesses: 1204165
ST tag read accesses: 232886339
ST tag write accesses: 2970256

DRAM Statistics
 CHANNEL 0
 RQ ROW_BUFFER_HIT:     166722  ROW_BUFFER_MISS:    2213541
 DBUS_CONGESTED:          0
 WQ ROW_BUFFER_HIT:     228164  ROW_BUFFER_MISS:    1553291  FULL:          0

 AVG_CONGESTED_CYCLE: -
 All warmup complete: 2
Channel 0 Bank busy for read cycles: 0
Channel 0 Bank busy for write cycles: 0
Channel 0
Rank 0
0banks busy for read cycles: 9045
0banks busy for write cycles: 0
1banks busy for read cycles: 947150
1banks busy for write cycles: 173971
2banks busy for read cycles: 1209877
2banks busy for write cycles: 173970
3banks busy for read cycles: 2230726
3banks busy for write cycles: 173968
4banks busy for read cycles: 3609198
4banks busy for write cycles: 173966
5banks busy for read cycles: 6933028
5banks busy for write cycles: 173994
6banks busy for read cycles: 11097998
6banks busy for write cycles: 183078
7banks busy for read cycles: 15383102
7banks busy for write cycles: 2221402
8banks busy for read cycles: 19359959
8banks busy for write cycles: 40960739

CPU 0 Branch Prediction Accuracy: 94.9836% MPKI: 0.8997 Average ROB Occupancy at Mispredict: 169.3
Branch types
NOT_BRANCH: 49103117 98.2062%
BRANCH_DIRECT_JUMP: 145480 0.29096%
BRANCH_INDIRECT: 0 0%
BRANCH_CONDITIONAL: 751270 1.50254%
BRANCH_DIRECT_CALL: 0 0%
BRANCH_INDIRECT_CALL: 0 0%
BRANCH_RETURN: 0 0%
BRANCH_OTHER: 0 0%

@sumon_overall_L1D         0         0         0         0         0         0         0
@Sumon_Early_by_class_L1D         0         0         0         0
@Sumon_Late_by_class_L1D         0         0         0         0

@Sumon_Early_by_cycle_L1D         0         0         0         0         0         0         0         0         0         0         0         0
@Sumon_Late_by_cycle_L1D         0         0         0         0         0         0
@Sumon_Early_stream_L1D         0         0         0         0         0         0         0         0         0         0         0         0
@Sumon_Early_CS_L1D         0         0         0         0         0         0         0         0         0         0         0         0
@Sumon_Early_CPLX_L1D         0         0         0         0         0         0         0         0         0         0         0         0
@Sumon_Late_stream_L1D         0         0         0         0         0         0
@Sumon_Late_CS_L1D         0         0         0         0         0         0
@Sumon_Late_CPLX_L1D         0         0         0         0         0         0
@sumon_overall_L2C    102084     77510         0         6    102090   3691624   3691624
@Sumon_Early_by_class_L2C         0         0         0         0
@Sumon_Late_by_class_L2C         0         0         0         0

@Sumon_Early_by_cycle_L2C     31216     18426     39207     10064      1663      1508         0         0         0         0         0         0
@Sumon_Late_by_cycle_L2C      6720     23447     18541      1995     14237     12570
@Sumon_Early_stream_L2C         0         0         0         0         0         0         0         0         0         0         0         0
@Sumon_Early_CS_L2C         0         0         0         0         0         0         0         0         0         0         0         0
@Sumon_Early_CPLX_L2C         0         0         0         0         0         0         0         0         0         0         0         0
@Sumon_Late_stream_L2C         0         0         0         0         0         0
@Sumon_Late_CS_L2C         0         0         0         0         0         0
@Sumon_Late_CPLX_L2C         0         0         0         0         0         0
DRAM PAGES: 1048576
Allocated PAGES: 40146
