Initialize SIGNATURE TABLE
ST_SET: 1
ST_WAY: 256
ST_TAG_BIT: 16
ST_TAG_MASK: ffff

Initialize PATTERN TABLE
PT_SET: 512
PT_WAY: 4
SIG_DELTA_BIT: 7
C_SIG_BIT: 4
C_DELTA_BIT: 4

Initialize PREFETCH FILTER
FILTER_SET: 1024

*** ChampSim Multicore Out-of-Order Simulator ***

Warmup Instructions: 50000000
Simulation Instructions: 50000000
Number of CPUs: 1
LLC sets: 2048
LLC ways: 16
Off-chip DRAM Size: 4096 MB Channels: 1 Width: 64-bit Data Rate: 6400 MT/s
CPU 0 runs ../../biswa/SPEC2017Traces/619.lbm_s-2676B.champsimtrace.xz
.xz
CPU 0 Bimodal branch predictor
BTB has LRU replacement policy
ITLB has LRU replacement policy
DTLB has LRU replacement policy
STLB has LRU replacement policy
L1I has LRU replacement policy
L1D has LRU replacement policy
ST_WAYS: 256
PT_SETS: 512
Initialize DRRIP state for L2C
Initialize DRRIP state for LLC
epoch: 1000
next table: 2860
cur table: 13409
epoch: 1000
next table: 2732
cur table: 2860
epoch: 1000
next table: 2657
cur table: 2732
epoch: 1000
next table: 2641
cur table: 2657
epoch: 1000
next table: 2610
cur table: 2641
epoch: 1000
next table: 2608
cur table: 2610
epoch: 1000
next table: 2595
cur table: 2608
epoch: 1000
next table: 2610
cur table: 2595
epoch: 1000
next table: 2575
cur table: 2610
epoch: 1000
next table: 2607
cur table: 2575
epoch: 1000
next table: 2624
cur table: 2607
epoch: 1000
next table: 2656
cur table: 2624
epoch: 1000
next table: 2660
cur table: 2656
epoch: 1000
next table: 2659
cur table: 2660
epoch: 1000
next table: 2658
cur table: 2659
epoch: 1000
next table: 2656
cur table: 2658
epoch: 1000
next table: 2641
cur table: 2656
epoch: 1000
next table: 2625
cur table: 2641
epoch: 1000
next table: 2588
cur table: 2625
epoch: 1000
next table: 2566
cur table: 2588
epoch: 1000
next table: 2597
cur table: 2566
epoch: 1000
next table: 2627
cur table: 2597
epoch: 1000
next table: 2660
cur table: 2627
epoch: 1000
next table: 2662
cur table: 2660
epoch: 1000
next table: 2659
cur table: 2662
epoch: 1000
next table: 2414
cur table: 32230
epoch: 1000
next table: 2641
cur table: 2659
epoch: 1000
next table: 2258
cur table: 2414
epoch: 1000
next table: 2618
cur table: 2641
epoch: 1000
next table: 2004
cur table: 2258
epoch: 1000
next table: 2626
cur table: 2618
epoch: 1000
next table: 2627
cur table: 2626
epoch: 1000
next table: 1989
cur table: 2004
epoch: 1000
next table: 2647
cur table: 2627
epoch: 1000
next table: 1912
cur table: 1989
epoch: 1000
next table: 2658
cur table: 2647
epoch: 1000
next table: 1902
cur table: 1912
epoch: 1000
next table: 2660
cur table: 2658
epoch: 1000
next table: 1901
cur table: 1902
epoch: 1000
next table: 2657
cur table: 2660
epoch: 1000
next table: 1903
cur table: 1901
epoch: 1000
next table: 2661
cur table: 2657
epoch: 1000
next table: 1881
cur table: 1903
epoch: 1000
next table: 2651
cur table: 2661
epoch: 1000
next table: 1885
cur table: 1881
epoch: 1000
next table: 2658
cur table: 2651
epoch: 1000
next table: 1901
cur table: 1885
epoch: 1000
next table: 2649
cur table: 2658
epoch: 1000
next table: 1962
cur table: 1901
epoch: 1000
next table: 2656
cur table: 2649
epoch: 1000
next table: 2003
cur table: 1962
epoch: 1000
next table: 2607
cur table: 2656
epoch: 1000
next table: 2021
cur table: 2003
epoch: 1000
next table: 2620
cur table: 2607
epoch: 1000
next table: 2010
cur table: 2021
epoch: 1000
next table: 2650
cur table: 2620
epoch: 1000
next table: 1919
cur table: 2010
epoch: 1000
next table: 2618
cur table: 2650
epoch: 1000
next table: 1919
cur table: 1919
epoch: 1000
next table: 2639
cur table: 2618
epoch: 1000
next table: 1904
cur table: 1919
epoch: 1000
next table: 2623
cur table: 2639
epoch: 1000
next table: 1921
cur table: 1904
epoch: 1000
next table: 2624
cur table: 2623
epoch: 1000
next table: 1931
cur table: 1921
epoch: 1000
next table: 2646
cur table: 2624
epoch: 1000
next table: 1933
cur table: 1931
epoch: 1000
next table: 2633
cur table: 2646
epoch: 1000
next table: 1933
cur table: 1933
epoch: 1000
next table: 2621
cur table: 2633
epoch: 1000
next table: 1952
cur table: 1933
epoch: 1000
next table: 2626
cur table: 2621
epoch: 1000
next table: 1952
cur table: 1952
epoch: 1000
next table: 2608
cur table: 2626
epoch: 1000
next table: 1969
cur table: 1952
epoch: 1000
next table: 2615
cur table: 2608
epoch: 1000
next table: 1952
cur table: 1969
epoch: 1000
next table: 2628
cur table: 2615
epoch: 1000
next table: 1966
cur table: 1952
epoch: 1000
next table: 2621
cur table: 2628
epoch: 1000
next table: 1945
cur table: 1966
epoch: 1000
next table: 2613
cur table: 2621
epoch: 1000
next table: 1959
cur table: 1945
epoch: 1000
next table: 2618
cur table: 2613
epoch: 1000
next table: 1965
cur table: 1959
epoch: 1000
next table: 2643
cur table: 2618
epoch: 1000
next table: 1961
cur table: 1965
epoch: 1000
next table: 2623
cur table: 2643
epoch: 1000
next table: 1987
cur table: 1961
epoch: 1000
next table: 2550
cur table: 2623
epoch: 1000
next table: 2009
cur table: 1987
epoch: 1000
next table: 2577
cur table: 2550
epoch: 1000
next table: 2009
cur table: 2009
epoch: 1000
next table: 2582
cur table: 2577
epoch: 1000
next table: 1973
cur table: 2009
epoch: 1000
next table: 2637
cur table: 2582
epoch: 1000
next table: 1989
cur table: 1973
epoch: 1000
next table: 2621
cur table: 2637
epoch: 1000
next table: 1971
cur table: 1989
epoch: 1000
next table: 2620
cur table: 2621
epoch: 1000
next table: 1985
cur table: 1971
epoch: 1000
next table: 2605
cur table: 2620
epoch: 1000
next table: 1988
cur table: 1985
epoch: 1000
next table: 2609
cur table: 2605
epoch: 1000
next table: 1965
cur table: 1988
epoch: 1000
next table: 2635
cur table: 2609
epoch: 1000
next table: 1966
cur table: 1965
epoch: 1000
next table: 2625
cur table: 2635
epoch: 1000
next table: 1967
cur table: 1966
epoch: 1000
next table: 2608
cur table: 2625
epoch: 1000
next table: 2003
cur table: 1967
epoch: 1000
next table: 2572
cur table: 2608
epoch: 1000
next table: 1973
cur table: 2003
epoch: 1000
next table: 2604
cur table: 2572
epoch: 1000
next table: 1953
cur table: 1973
epoch: 1000
next table: 2633
cur table: 2604
epoch: 1000
next table: 2635
cur table: 2633
epoch: 1000
next table: 1955
cur table: 1953
epoch: 1000
next table: 2653
cur table: 2635
epoch: 1000
next table: 1973
cur table: 1955
epoch: 1000
next table: 2636
cur table: 2653
epoch: 1000
next table: 1940
cur table: 1973
epoch: 1000
next table: 2657
cur table: 2636
epoch: 1000
next table: 1962
cur table: 1940
epoch: 1000
next table: 2632
cur table: 2657
epoch: 1000
next table: 1946
cur table: 1962
epoch: 1000
next table: 2624
cur table: 2632
epoch: 1000
next table: 1978
cur table: 1946
epoch: 1000
next table: 2648
cur table: 2624
epoch: 1000
next table: 1938
cur table: 1978
epoch: 1000
next table: 2662
cur table: 2648
epoch: 1000
next table: 1965
cur table: 1938
epoch: 1000
next table: 2655
cur table: 2662
epoch: 1000
next table: 1937
cur table: 1965
epoch: 1000
next table: 2661
cur table: 2655
epoch: 1000
next table: 1951
cur table: 1937
epoch: 1000
next table: 2664
cur table: 2661
epoch: 1000
next table: 1934
cur table: 1951
epoch: 1000
next table: 2663
cur table: 2664
epoch: 1000
next table: 1942
cur table: 1934
epoch: 1000
next table: 2661
cur table: 2663
epoch: 1000
next table: 1959
cur table: 1942
epoch: 1000
next table: 2664
cur table: 2661
epoch: 1000
next table: 1943
cur table: 1959
epoch: 1000
next table: 2660
cur table: 2664
epoch: 1000
next table: 1958
cur table: 1943
epoch: 1000
next table: 2665
cur table: 2660
epoch: 1000
next table: 1946
cur table: 1958
epoch: 1000
next table: 2623
cur table: 2665
epoch: 1000
next table: 1974
cur table: 1946
epoch: 1000
next table: 2630
cur table: 2623
epoch: 1000
next table: 1964
cur table: 1974
epoch: 1000
next table: 2627
cur table: 2630
epoch: 1000
next table: 1968
cur table: 1964
epoch: 1000
next table: 2620
cur table: 2627
epoch: 1000
next table: 1982
cur table: 1968
epoch: 1000
next table: 2615
cur table: 2620
epoch: 1000
next table: 1977
cur table: 1982
epoch: 1000
next table: 2633
cur table: 2615
epoch: 1000
next table: 1963
cur table: 1977
epoch: 1000
next table: 2635
cur table: 2633
epoch: 1000
next table: 1969
cur table: 1963
epoch: 1000
next table: 2654
cur table: 2635
epoch: 1000
next table: 1933
cur table: 1969
epoch: 1000
next table: 2637
cur table: 2654
epoch: 1000
next table: 1973
cur table: 1933
epoch: 1000
next table: 2616
cur table: 2637
epoch: 1000
next table: 1958
cur table: 1973
epoch: 1000
next table: 2630
cur table: 2616
epoch: 1000
next table: 1991
cur table: 1958
epoch: 1000
next table: 2594
cur table: 2630
epoch: 1000
next table: 1993
cur table: 1991
epoch: 1000
next table: 2570
cur table: 2594
epoch: 1000
next table: 2000
cur table: 1993
epoch: 1000
next table: 2621
cur table: 2570
epoch: 1000
next table: 1956
cur table: 2000
epoch: 1000
next table: 2617
cur table: 2621
epoch: 1000
next table: 1983
cur table: 1956
epoch: 1000
next table: 2643
cur table: 2617
epoch: 1000
next table: 1930
cur table: 1983
epoch: 1000
next table: 2649
cur table: 2643
epoch: 1000
next table: 1978
cur table: 1930
epoch: 1000
next table: 2611
cur table: 2649
epoch: 1000
next table: 1985
cur table: 1978
epoch: 1000
next table: 2561
cur table: 2611
epoch: 1000
next table: 2031
cur table: 1985
epoch: 1000
next table: 2598
cur table: 2561
epoch: 1000
next table: 1965
cur table: 2031
epoch: 1000
next table: 2607
cur table: 2598
epoch: 1000
next table: 1989
cur table: 1965
epoch: 1000
next table: 2641
cur table: 2607
epoch: 1000
next table: 1948
cur table: 1989
epoch: 1000
next table: 2649
cur table: 2641
epoch: 1000
next table: 1942
cur table: 1948
epoch: 1000
next table: 2656
cur table: 2649
epoch: 1000
next table: 1937
cur table: 1942
epoch: 1000
next table: 2650
cur table: 2656
epoch: 1000
next table: 1961
cur table: 1937
epoch: 1000
next table: 2663
cur table: 2650
epoch: 1000
next table: 1945
cur table: 1961
epoch: 1000
next table: 2655
cur table: 2663
epoch: 1000
next table: 1959
cur table: 1945
epoch: 1000
next table: 2649
cur table: 2655
epoch: 1000
next table: 1953
cur table: 1959
epoch: 1000
next table: 2647
cur table: 2649
epoch: 1000
next table: 1940
cur table: 1953
epoch: 1000
next table: 2658
cur table: 2647
epoch: 1000
next table: 1964
cur table: 1940
epoch: 1000
next table: 2616
cur table: 2658
epoch: 1000
next table: 1968
cur table: 1964
epoch: 1000
next table: 2632
cur table: 2616
epoch: 1000
next table: 1978
cur table: 1968
epoch: 1000
next table: 2628
cur table: 2632
epoch: 1000
next table: 1964
cur table: 1978
epoch: 1000
next table: 2615
cur table: 2628
epoch: 1000
next table: 1991
cur table: 1964
epoch: 1000
next table: 2598
cur table: 2615
epoch: 1000
next table: 1976
cur table: 1991
epoch: 1000
next table: 2628
cur table: 2598
epoch: 1000
next table: 1966
cur table: 1976
epoch: 1000
next table: 2640
cur table: 2628
epoch: 1000
next table: 1952
cur table: 1966
epoch: 1000
next table: 2652
cur table: 2640
epoch: 1000
next table: 1970
cur table: 1952
epoch: 1000
next table: 2648
cur table: 2652
epoch: 1000
next table: 1933
cur table: 1970
epoch: 1000
next table: 2658
cur table: 2648
epoch: 1000
next table: 1976
cur table: 1933
epoch: 1000
next table: 2649
cur table: 2658
epoch: 1000
next table: 1941
cur table: 1976
epoch: 1000
next table: 2650
cur table: 2649
epoch: 1000
next table: 1982
cur table: 1941
epoch: 1000
next table: 2642
cur table: 2650
epoch: 1000
next table: 1950
cur table: 1982
epoch: 1000
next table: 2657
cur table: 2642
epoch: 1000
next table: 1973
cur table: 1950
epoch: 1000
next table: 2659
cur table: 2657
epoch: 1000
next table: 1944
cur table: 1973
epoch: 1000
next table: 2667
cur table: 2659
epoch: 1000
next table: 1961
cur table: 1944
epoch: 1000
next table: 2658
cur table: 2667
epoch: 1000
next table: 1949
cur table: 1961
epoch: 1000
next table: 2650
cur table: 2658
epoch: 1000
next table: 1964
cur table: 1949
epoch: 1000
next table: 2653
cur table: 2650
epoch: 1000
next table: 1944
cur table: 1964
epoch: 1000
next table: 2646
cur table: 2653
epoch: 1000
next table: 1968
cur table: 1944
epoch: 1000
next table: 2622
cur table: 2646
epoch: 1000
next table: 1970
cur table: 1968
epoch: 1000
next table: 2616
cur table: 2622
epoch: 1000
next table: 2623
cur table: 2616
epoch: 1000
next table: 1958
cur table: 1970
epoch: 1000
next table: 2656
cur table: 2623
epoch: 1000
next table: 1946
cur table: 1958
epoch: 1000
next table: 2657
cur table: 2656
epoch: 1000
next table: 1950
cur table: 1946
epoch: 1000
next table: 2649
cur table: 2657
epoch: 1000
next table: 1954
cur table: 1950
epoch: 1000
next table: 2654
cur table: 2649
epoch: 1000
next table: 1974
cur table: 1954
epoch: 1000
next table: 2633
cur table: 2654
epoch: 1000
next table: 1953
cur table: 1974
epoch: 1000
next table: 2590
cur table: 2633
epoch: 1000
next table: 2011
cur table: 1953
epoch: 1000
next table: 2627
cur table: 2590
epoch: 1000
next table: 1965
cur table: 2011
epoch: 1000
next table: 2626
cur table: 2627
epoch: 1000
next table: 1988
cur table: 1965
epoch: 1000
next table: 2630
cur table: 2626
epoch: 1000
next table: 1955
cur table: 1988
epoch: 1000
next table: 2656
cur table: 2630
epoch: 1000
next table: 1974
cur table: 1955
epoch: 1000
next table: 2664
cur table: 2656
epoch: 1000
next table: 1948
cur table: 1974
epoch: 1000
next table: 2661
cur table: 2664
epoch: 1000
next table: 1961
cur table: 1948
epoch: 1000
next table: 2645
cur table: 2661
epoch: 1000
next table: 1963
cur table: 1961
epoch: 1000
next table: 2659
cur table: 2645
epoch: 1000
next table: 1964
cur table: 1963
epoch: 1000
next table: 2661
cur table: 2659
epoch: 1000
next table: 1950
cur table: 1964
epoch: 1000
next table: 2660
cur table: 2661
epoch: 1000
next table: 1960
cur table: 1950
epoch: 1000
next table: 2657
cur table: 2660
epoch: 1000
next table: 1930
cur table: 1960
epoch: 1000
next table: 2660
cur table: 2657
epoch: 1000
next table: 1953
cur table: 1930
epoch: 1000
next table: 2660
cur table: 2660
epoch: 1000
next table: 1941
cur table: 1953
epoch: 1000
next table: 2664
cur table: 2660
epoch: 1000
next table: 1934
cur table: 1941
epoch: 1000
next table: 2659
cur table: 2664
epoch: 1000
next table: 1951
cur table: 1934
epoch: 1000
next table: 2666
cur table: 2659
epoch: 1000
next table: 1924
cur table: 1951
epoch: 1000
next table: 2660
cur table: 2666
epoch: 1000
next table: 1951
cur table: 1924
epoch: 1000
next table: 2663
cur table: 2660
epoch: 1000
next table: 1922
cur table: 1951
epoch: 1000
next table: 2660
cur table: 2663
epoch: 1000
next table: 1932
cur table: 1922
epoch: 1000
next table: 2664
cur table: 2660
epoch: 1000
next table: 1927
cur table: 1932
epoch: 1000
next table: 2660
cur table: 2664
epoch: 1000
next table: 1943
cur table: 1927
epoch: 1000
next table: 2663
cur table: 2660
epoch: 1000
next table: 1924
cur table: 1943
epoch: 1000
next table: 2664
cur table: 2663
epoch: 1000
next table: 1936
cur table: 1924
epoch: 1000
next table: 2664
cur table: 2664
epoch: 1000
next table: 1938
cur table: 1936
epoch: 1000
next table: 2658
cur table: 2664
epoch: 1000
next table: 1931
cur table: 1938
epoch: 1000
next table: 2667
cur table: 2658
epoch: 1000
next table: 1928
cur table: 1931
epoch: 1000
next table: 2659
cur table: 2667
epoch: 1000
next table: 1928
cur table: 1928
epoch: 1000
next table: 2663
cur table: 2659
epoch: 1000
next table: 1947
cur table: 1928
epoch: 1000
next table: 2663
cur table: 2663
epoch: 1000
next table: 1931
cur table: 1947
epoch: 1000
next table: 2654
cur table: 2663
epoch: 1000
next table: 1936
cur table: 1931
epoch: 1000
next table: 2630
cur table: 2654
epoch: 1000
next table: 1955
cur table: 1936
epoch: 1000
next table: 2631
cur table: 2630
epoch: 1000
next table: 1974
cur table: 1955
epoch: 1000
next table: 2651
cur table: 2631
epoch: 1000
next table: 1948
cur table: 1974
epoch: 1000
next table: 2644
cur table: 2651
epoch: 1000
next table: 1965
cur table: 1948
epoch: 1000
next table: 2616
cur table: 2644
epoch: 1000
next table: 1975
cur table: 1965
epoch: 1000
next table: 2599
cur table: 2616
epoch: 1000
next table: 1985
cur table: 1975
epoch: 1000
next table: 2619
cur table: 2599
epoch: 1000
next table: 1978
cur table: 1985
epoch: 1000
next table: 2612
cur table: 2619
epoch: 1000
next table: 1979
cur table: 1978
epoch: 1000
next table: 2532
cur table: 2612
epoch: 1000
next table: 2106
cur table: 1979
epoch: 1000
next table: 2396
cur table: 2532
epoch: 1000
next table: 2093
cur table: 2106
epoch: 1000
next table: 2497
cur table: 2396
epoch: 1000
next table: 2000
cur table: 2093
epoch: 1000
next table: 2604
cur table: 2497
epoch: 1000
next table: 1993
cur table: 2000
epoch: 1000
next table: 2597
cur table: 2604
epoch: 1000
next table: 1981
cur table: 1993
epoch: 1000
next table: 2627
cur table: 2597
epoch: 1000
next table: 1991
cur table: 1981
epoch: 1000
next table: 2605
cur table: 2627
epoch: 1000
next table: 1968
cur table: 1991
epoch: 1000
next table: 2642
cur table: 2605
epoch: 1000
next table: 1954
cur table: 1968
epoch: 1000
next table: 2635
cur table: 2642
epoch: 1000
next table: 1973
cur table: 1954
epoch: 1000
next table: 2657
cur table: 2635
epoch: 1000
next table: 1968
cur table: 1973
epoch: 1000
next table: 2597
cur table: 2657
epoch: 1000
next table: 1996
cur table: 1968
epoch: 1000
next table: 2577
cur table: 2597
epoch: 1000
next table: 1982
cur table: 1996
epoch: 1000
next table: 2598
cur table: 2577
epoch: 1000
next table: 2615
cur table: 2598
epoch: 1000
next table: 1982
cur table: 1982
epoch: 1000
next table: 2605
cur table: 2615
epoch: 1000
next table: 1977
cur table: 1982
epoch: 1000
next table: 2617
cur table: 2605
epoch: 1000
next table: 1986
cur table: 1977
epoch: 1000
next table: 2597
cur table: 2617
epoch: 1000
next table: 1983
cur table: 1986
epoch: 1000
next table: 2587
cur table: 2597
epoch: 1000
next table: 1983
cur table: 1983
epoch: 1000
next table: 2593
cur table: 2587
epoch: 1000
next table: 1985
cur table: 1983
epoch: 1000
next table: 2598
cur table: 2593
epoch: 1000
next table: 1973
cur table: 1985
epoch: 1000
next table: 2581
cur table: 2598
epoch: 1000
next table: 1980
cur table: 1973
epoch: 1000
next table: 2652
cur table: 2581
epoch: 1000
next table: 1957
cur table: 1980
epoch: 1000
next table: 2650
cur table: 2652
epoch: 1000
next table: 1947
cur table: 1957
epoch: 1000
next table: 2646
cur table: 2650
epoch: 1000
next table: 1972
cur table: 1947
epoch: 1000
next table: 2639
cur table: 2646
epoch: 1000
next table: 1959
cur table: 1972
epoch: 1000
next table: 2650
cur table: 2639
epoch: 1000
next table: 1958
cur table: 1959
epoch: 1000
next table: 2649
cur table: 2650
epoch: 1000
next table: 1952
cur table: 1958
epoch: 1000
next table: 2637
cur table: 2649
epoch: 1000
next table: 1959
cur table: 1952
epoch: 1000
next table: 2622
cur table: 2637
epoch: 1000
next table: 1972
cur table: 1959
epoch: 1000
next table: 2630
cur table: 2622
epoch: 1000
next table: 1969
cur table: 1972
epoch: 1000
next table: 2642
cur table: 2630
epoch: 1000
next table: 1970
cur table: 1969
epoch: 1000
next table: 2645
cur table: 2642
epoch: 1000
next table: 1942
cur table: 1970
epoch: 1000
next table: 2657
cur table: 2645
epoch: 1000
next table: 1963
cur table: 1942
epoch: 1000
next table: 2655
cur table: 2657
epoch: 1000
next table: 1931
cur table: 1963
epoch: 1000
next table: 2657
cur table: 2655
epoch: 1000
next table: 1962
cur table: 1931
epoch: 1000
next table: 2662
cur table: 2657
epoch: 1000
next table: 1932
cur table: 1962
epoch: 1000
next table: 2666
cur table: 2662
epoch: 1000
next table: 1957
cur table: 1932
epoch: 1000
next table: 2659
cur table: 2666
epoch: 1000
next table: 1932
cur table: 1957
epoch: 1000
next table: 2661
cur table: 2659
epoch: 1000
next table: 1957
cur table: 1932
epoch: 1000
next table: 2659
cur table: 2661
epoch: 1000
next table: 1954
cur table: 1957
epoch: 1000
next table: 2660
cur table: 2659
epoch: 1000
next table: 1955
cur table: 1954
epoch: 1000
next table: 2662
cur table: 2660
epoch: 1000
next table: 1934
cur table: 1955
epoch: 1000
next table: 2662
cur table: 2662
epoch: 1000
next table: 1940
cur table: 1934
epoch: 1000
next table: 2657
cur table: 2662
epoch: 1000
next table: 1930
cur table: 1940
epoch: 1000
next table: 2651
cur table: 2657
epoch: 1000
next table: 1963
cur table: 1930
epoch: 1000
next table: 2637
cur table: 2651
epoch: 1000
next table: 1952
cur table: 1963
epoch: 1000
next table: 2624
cur table: 2637
epoch: 1000
next table: 1969
cur table: 1952
epoch: 1000
next table: 2631
cur table: 2624
epoch: 1000
next table: 1940
cur table: 1969
epoch: 1000
next table: 2658
cur table: 2631
epoch: 1000
next table: 1955
cur table: 1940
epoch: 1000
next table: 2649
cur table: 2658
epoch: 1000
next table: 1945
cur table: 1955
epoch: 1000
next table: 2660
cur table: 2649
epoch: 1000
next table: 1958
cur table: 1945
epoch: 1000
next table: 2645
cur table: 2660
epoch: 1000
next table: 1943
cur table: 1958
epoch: 1000
next table: 2627
cur table: 2645
epoch: 1000
next table: 1997
cur table: 1943
epoch: 1000
next table: 2629
cur table: 2627
epoch: 1000
next table: 1944
cur table: 1997
epoch: 1000
next table: 2627
cur table: 2629
epoch: 1000
next table: 1988
cur table: 1944
epoch: 1000
next table: 2641
cur table: 2627
epoch: 1000
next table: 1958
cur table: 1988
epoch: 1000
next table: 2602
cur table: 2641
epoch: 1000
next table: 2000
cur table: 1958
epoch: 1000
next table: 2595
cur table: 2602
epoch: 1000
next table: 1956
cur table: 2000
epoch: 1000
next table: 2612
cur table: 2595
epoch: 1000
next table: 1991
cur table: 1956
epoch: 1000
next table: 2625
cur table: 2612
epoch: 1000
next table: 1942
cur table: 1991
epoch: 1000
next table: 2577
cur table: 2625
epoch: 1000
next table: 2003
cur table: 1942
epoch: 1000
next table: 2624
cur table: 2577
epoch: 1000
next table: 1967
cur table: 2003
epoch: 1000
next table: 2620
cur table: 2624
epoch: 1000
next table: 1996
cur table: 1967
epoch: 1000
next table: 2632
cur table: 2620
epoch: 1000
next table: 1970
cur table: 1996
epoch: 1000
next table: 2602
cur table: 2632
epoch: 1000
next table: 1982
cur table: 1970
epoch: 1000
next table: 2622
cur table: 2602
epoch: 1000
next table: 1976
cur table: 1982
epoch: 1000
next table: 2597
cur table: 2622
epoch: 1000
next table: 2570
cur table: 2597
epoch: 1000
next table: 1998
cur table: 1976
epoch: 1000
next table: 2576
cur table: 2570
epoch: 1000
next table: 2000
cur table: 1998
epoch: 1000
next table: 2606
cur table: 2576
epoch: 1000
next table: 1953
cur table: 2000
epoch: 1000
next table: 2636
cur table: 2606
epoch: 1000
next table: 1955
cur table: 1953
epoch: 1000
next table: 2649
cur table: 2636
epoch: 1000
next table: 1958
cur table: 1955
epoch: 1000
next table: 2661
cur table: 2649
epoch: 1000
next table: 1943
cur table: 1958
epoch: 1000
next table: 2663
cur table: 2661
epoch: 1000
next table: 1941
cur table: 1943
epoch: 1000
next table: 2654
cur table: 2663
epoch: 1000
next table: 1959
cur table: 1941
epoch: 1000
next table: 2653
cur table: 2654
epoch: 1000
next table: 1945
cur table: 1959
epoch: 1000
next table: 2656
cur table: 2653
epoch: 1000
next table: 1947
cur table: 1945
epoch: 1000
next table: 2650
cur table: 2656
epoch: 1000
next table: 1941
cur table: 1947
epoch: 1000
next table: 2661
cur table: 2650
epoch: 1000
next table: 1932
cur table: 1941
epoch: 1000
next table: 2658
cur table: 2661
epoch: 1000
next table: 1940
cur table: 1932
epoch: 1000
next table: 2663
cur table: 2658
epoch: 1000
next table: 1952
cur table: 1940
epoch: 1000
next table: 2661
cur table: 2663
epoch: 1000
next table: 1949
cur table: 1952
epoch: 1000
next table: 2655
cur table: 2661
epoch: 1000
next table: 1944
cur table: 1949
epoch: 1000
next table: 2662
cur table: 2655
epoch: 1000
next table: 1965
cur table: 1944
epoch: 1000
next table: 2661
cur table: 2662
epoch: 1000
next table: 1946
cur table: 1965
epoch: 1000
next table: 2659
cur table: 2661
epoch: 1000
next table: 1960
cur table: 1946
epoch: 1000
next table: 2665
cur table: 2659
epoch: 1000
next table: 1942
cur table: 1960
epoch: 1000
next table: 2660
cur table: 2665
epoch: 1000
next table: 1973
cur table: 1942
epoch: 1000
next table: 2662
cur table: 2660
epoch: 1000
next table: 1953
cur table: 1973
epoch: 1000
next table: 2663
cur table: 2662
epoch: 1000
next table: 1963
cur table: 1953
epoch: 1000
next table: 2664
cur table: 2663
epoch: 1000
next table: 1941
cur table: 1963
epoch: 1000
next table: 2659
cur table: 2664
epoch: 1000
next table: 1960
cur table: 1941
epoch: 1000
next table: 2662
cur table: 2659
epoch: 1000
next table: 1943
cur table: 1960
epoch: 1000
next table: 2663
cur table: 2662
epoch: 1000
next table: 1954
cur table: 1943
epoch: 1000
next table: 2652
cur table: 2663
epoch: 1000
next table: 1940
cur table: 1954
epoch: 1000
next table: 2652
cur table: 2652
epoch: 1000
next table: 1964
cur table: 1940
epoch: 1000
next table: 2650
cur table: 2652
epoch: 1000
next table: 1929
cur table: 1964
epoch: 1000
next table: 2646
cur table: 2650
epoch: 1000
next table: 1956
cur table: 1929
epoch: 1000
next table: 2641
cur table: 2646
epoch: 1000
next table: 1971
cur table: 1956
epoch: 1000
next table: 2631
cur table: 2641
epoch: 1000
next table: 1981
cur table: 1971
epoch: 1000
next table: 2642
cur table: 2631
epoch: 1000
next table: 1934
cur table: 1981
epoch: 1000
next table: 2646
cur table: 2642
epoch: 1000
next table: 1979
cur table: 1934
epoch: 1000
next table: 2648
cur table: 2646
epoch: 1000
next table: 1935
cur table: 1979
epoch: 1000
next table: 2623
cur table: 2648
epoch: 1000
next table: 1971
cur table: 1935
epoch: 1000
next table: 2590
cur table: 2623
epoch: 1000
next table: 1968
cur table: 1971
epoch: 1000
next table: 2610
cur table: 2590
epoch: 1000
next table: 1976
cur table: 1968
epoch: 1000
next table: 2620
cur table: 2610
epoch: 1000
next table: 1936
cur table: 1976
epoch: 1000
next table: 2637
cur table: 2620
epoch: 1000
next table: 1966
cur table: 1936
epoch: 1000
next table: 2644
cur table: 2637
epoch: 1000
next table: 1929
cur table: 1966
epoch: 1000
next table: 2635
cur table: 2644
epoch: 1000
next table: 1969
cur table: 1929
epoch: 1000
next table: 2648
cur table: 2635
epoch: 1000
next table: 1952
cur table: 1969
epoch: 1000
next table: 2657
cur table: 2648
epoch: 1000
next table: 1959
cur table: 1952
epoch: 1000
next table: 2665
cur table: 2657
epoch: 1000
next table: 1946
cur table: 1959
epoch: 1000
next table: 2651
cur table: 2665
epoch: 1000
next table: 1959
cur table: 1946
epoch: 1000
next table: 2641
cur table: 2651
epoch: 1000
next table: 1960
cur table: 1959
epoch: 1000
next table: 2637
cur table: 2641
epoch: 1000
next table: 1964
cur table: 1960
epoch: 1000
next table: 2646
cur table: 2637
epoch: 1000
next table: 1955
cur table: 1964
epoch: 1000
next table: 2646
cur table: 2646
epoch: 1000
next table: 1971
cur table: 1955
epoch: 1000
next table: 2655
cur table: 2646
epoch: 1000
next table: 1953
cur table: 1971
epoch: 1000
next table: 2660
cur table: 2655
epoch: 1000
next table: 1958
cur table: 1953
epoch: 1000
next table: 2665
cur table: 2660
epoch: 1000
next table: 1940
cur table: 1958
epoch: 1000
next table: 2658
cur table: 2665
epoch: 1000
next table: 1955
cur table: 1940
epoch: 1000
next table: 2660
cur table: 2658
epoch: 1000
next table: 1939
cur table: 1955
epoch: 1000
next table: 2662
cur table: 2660
epoch: 1000
next table: 1953
cur table: 1939
epoch: 1000
next table: 2662
cur table: 2662
epoch: 1000
next table: 1961
cur table: 1953
epoch: 1000
next table: 2664
cur table: 2662
epoch: 1000
next table: 1940
cur table: 1961
epoch: 1000
next table: 2658
cur table: 2664
epoch: 1000
next table: 1940
cur table: 1940
epoch: 1000
next table: 2665
cur table: 2658
epoch: 1000
next table: 1922
cur table: 1940
epoch: 1000
next table: 2658
cur table: 2665
epoch: 1000
next table: 1935
cur table: 1922
epoch: 1000
next table: 2666
cur table: 2658
epoch: 1000
next table: 1926
cur table: 1935
epoch: 1000
next table: 2660
cur table: 2666
epoch: 1000
next table: 1924
cur table: 1926
epoch: 1000
next table: 2658
cur table: 2660
epoch: 1000
next table: 1912
cur table: 1924
epoch: 1000
next table: 2664
cur table: 2658
epoch: 1000
next table: 1940
cur table: 1912
epoch: 1000
next table: 2661
cur table: 2664
epoch: 1000
next table: 1939
cur table: 1940
epoch: 1000
next table: 2654
cur table: 2661
epoch: 1000
next table: 1950
cur table: 1939
epoch: 1000
next table: 2618
cur table: 2654
epoch: 1000
next table: 1938
cur table: 1950
epoch: 1000
next table: 2647
cur table: 2618
epoch: 1000
next table: 1950
cur table: 1938
epoch: 1000
next table: 2652
cur table: 2647
epoch: 1000
next table: 1955
cur table: 1950
epoch: 1000
next table: 2619
cur table: 2652
epoch: 1000
next table: 1979
cur table: 1955
epoch: 1000
next table: 2609
cur table: 2619
epoch: 1000
next table: 1985
cur table: 1979
epoch: 1000
next table: 2610
cur table: 2609
epoch: 1000
next table: 1970
cur table: 1985
epoch: 1000
next table: 2605
cur table: 2610
epoch: 1000
next table: 2023
cur table: 1970
epoch: 1000
next table: 2580
cur table: 2605
epoch: 1000
next table: 1945
cur table: 2023
epoch: 1000
next table: 2653
cur table: 2580
epoch: 1000
next table: 1958
cur table: 1945
epoch: 1000
next table: 2649
cur table: 2653
epoch: 1000
next table: 1949
cur table: 1958
epoch: 1000
next table: 2660
cur table: 2649
epoch: 1000
next table: 1954
cur table: 1949
epoch: 1000
next table: 2663
cur table: 2660
epoch: 1000
next table: 1941
cur table: 1954
epoch: 1000
next table: 2661
cur table: 2663
epoch: 1000
next table: 1967
cur table: 1941
epoch: 1000
next table: 2660
cur table: 2661
epoch: 1000
next table: 1949
cur table: 1967
epoch: 1000
next table: 2667
cur table: 2660
epoch: 1000
next table: 1975
cur table: 1949
epoch: 1000
next table: 2644
cur table: 2667
epoch: 1000
next table: 1950
cur table: 1975
epoch: 1000
next table: 2653
cur table: 2644
epoch: 1000
next table: 1999
cur table: 1950
epoch: 1000
next table: 2647
cur table: 2653
epoch: 1000
next table: 1951
cur table: 1999
epoch: 1000
next table: 2646
cur table: 2647
epoch: 1000
next table: 1989
cur table: 1951
epoch: 1000
next table: 2658
cur table: 2646
epoch: 1000
next table: 1965
cur table: 1989
epoch: 1000
next table: 2640
cur table: 2658
epoch: 1000
next table: 2010
cur table: 1965
epoch: 1000
next table: 2606
cur table: 2640
epoch: 1000
next table: 1971
cur table: 2010
epoch: 1000
next table: 2615
cur table: 2606
epoch: 1000
next table: 1976
cur table: 1971
epoch: 1000
next table: 2640
cur table: 2615
epoch: 1000
next table: 1975
cur table: 1976
epoch: 1000
next table: 2627
cur table: 2640
epoch: 1000
next table: 1976
cur table: 1975
epoch: 1000
next table: 2625
cur table: 2627
epoch: 1000
next table: 1976
cur table: 1976
epoch: 1000
next table: 2604
cur table: 2625
epoch: 1000
next table: 1962
cur table: 1976
epoch: 1000
next table: 2638
cur table: 2604
epoch: 1000
next table: 1937
cur table: 1962
epoch: 1000
next table: 2653
cur table: 2638
epoch: 1000
next table: 1954
cur table: 1937
epoch: 1000
next table: 2635
cur table: 2653
epoch: 1000
next table: 1938
cur table: 1954
epoch: 1000
next table: 2664
cur table: 2635
epoch: 1000
next table: 1932
cur table: 1938
epoch: 1000
next table: 2661
cur table: 2664
epoch: 1000
next table: 1930
cur table: 1932
epoch: 1000
next table: 2667
cur table: 2661
epoch: 1000
next table: 1939
cur table: 1930
epoch: 1000
next table: 2646
cur table: 2667
epoch: 1000
next table: 1943
cur table: 1939
epoch: 1000
next table: 2652
cur table: 2646
epoch: 1000
next table: 2660
cur table: 2652
epoch: 1000
next table: 1939
cur table: 1943
epoch: 1000
next table: 1945
cur table: 1939
epoch: 1000
next table: 2664
cur table: 2660
epoch: 1000
next table: 2644
cur table: 2664
epoch: 1000
next table: 1935
cur table: 1945
epoch: 1000
next table: 2663
cur table: 2644
epoch: 1000
next table: 1951
cur table: 1935
epoch: 1000
next table: 2661
cur table: 2663
epoch: 1000
next table: 1933
cur table: 1951
epoch: 1000
next table: 2664
cur table: 2661
epoch: 1000
next table: 1958
cur table: 1933
epoch: 1000
next table: 2664
cur table: 2664
epoch: 1000
next table: 1940
cur table: 1958
epoch: 1000
next table: 2661
cur table: 2664
epoch: 1000
next table: 1944
cur table: 1940
epoch: 1000
next table: 2664
cur table: 2661
epoch: 1000
next table: 1934
cur table: 1944
epoch: 1000
next table: 2660
cur table: 2664
epoch: 1000
next table: 1965
cur table: 1934
epoch: 1000
next table: 2664
cur table: 2660
epoch: 1000
next table: 1926
cur table: 1965
epoch: 1000
next table: 2662
cur table: 2664
epoch: 1000
next table: 1956
cur table: 1926
epoch: 1000
next table: 2663
cur table: 2662
epoch: 1000
next table: 1930
cur table: 1956
epoch: 1000
next table: 2663
cur table: 2663
epoch: 1000
next table: 1963
cur table: 1930
epoch: 1000
next table: 2661
cur table: 2663
epoch: 1000
next table: 1947
cur table: 1963
epoch: 1000
next table: 2664
cur table: 2661
epoch: 1000
next table: 1951
cur table: 1947
epoch: 1000
next table: 2654
cur table: 2664
epoch: 1000
next table: 1946
cur table: 1951
epoch: 1000
next table: 2663
cur table: 2654
epoch: 1000
next table: 1961
cur table: 1946
epoch: 1000
next table: 2656
cur table: 2663
epoch: 1000
next table: 1957
cur table: 1961
epoch: 1000
next table: 2626
cur table: 2656
epoch: 1000
next table: 1982
cur table: 1957
epoch: 1000
next table: 2578
cur table: 2626
epoch: 1000
next table: 1996
cur table: 1982
epoch: 1000
next table: 2590
cur table: 2578
epoch: 1000
next table: 1993
cur table: 1996
epoch: 1000
next table: 2619
cur table: 2590
epoch: 1000
next table: 1981
cur table: 1993
epoch: 1000
next table: 2637
cur table: 2619
epoch: 1000
next table: 1979
cur table: 1981
epoch: 1000
next table: 2633
cur table: 2637
epoch: 1000
next table: 1965
cur table: 1979
epoch: 1000
next table: 2655
cur table: 2633
epoch: 1000
next table: 1955
cur table: 1965
epoch: 1000
next table: 2646
cur table: 2655
epoch: 1000
next table: 1957
cur table: 1955
epoch: 1000
next table: 2659
cur table: 2646
epoch: 1000
next table: 1952
cur table: 1957
epoch: 1000
next table: 2640
cur table: 2659
epoch: 1000
next table: 1961
cur table: 1952
epoch: 1000
next table: 2654
cur table: 2640
epoch: 1000
next table: 1954
cur table: 1961
epoch: 1000
next table: 2647
cur table: 2654
epoch: 1000
next table: 1950
cur table: 1954
epoch: 1000
next table: 2646
cur table: 2647
epoch: 1000
next table: 1958
cur table: 1950
epoch: 1000
next table: 2648
cur table: 2646
epoch: 1000
next table: 1939
cur table: 1958
epoch: 1000
next table: 2646
cur table: 2648
epoch: 1000
next table: 1958
cur table: 1939
epoch: 1000
next table: 2662
cur table: 2646
epoch: 1000
next table: 1942
cur table: 1958
epoch: 1000
next table: 2655
cur table: 2662
epoch: 1000
next table: 1951
cur table: 1942
epoch: 1000
next table: 2650
cur table: 2655
epoch: 1000
next table: 1936
cur table: 1951
epoch: 1000
next table: 2646
cur table: 2650
epoch: 1000
next table: 1949
cur table: 1936
epoch: 1000
next table: 2647
cur table: 2646
epoch: 1000
next table: 1926
cur table: 1949
epoch: 1000
next table: 2618
cur table: 2647
epoch: 1000
next table: 1990
cur table: 1926
epoch: 1000
next table: 2604
cur table: 2618
epoch: 1000
next table: 1946
cur table: 1990
epoch: 1000
next table: 2590
cur table: 2604
epoch: 1000
next table: 1972
cur table: 1946
epoch: 1000
next table: 2638
cur table: 2590
epoch: 1000
next table: 1909
cur table: 1972
epoch: 1000
next table: 2608
cur table: 2638
epoch: 1000
next table: 1975
cur table: 1909
epoch: 1000
next table: 2625
cur table: 2608
epoch: 1000
next table: 1964
cur table: 1975
epoch: 1000
next table: 2525
cur table: 2625
epoch: 1000
next table: 2029
cur table: 1964
epoch: 1000
next table: 2597
cur table: 2525
epoch: 1000
next table: 1959
cur table: 2029
epoch: 1000
next table: 2598
cur table: 2597
epoch: 1000
next table: 1953
cur table: 1959
epoch: 1000
next table: 2626
cur table: 2598
epoch: 1000
next table: 1943
cur table: 1953
epoch: 1000
next table: 2636
cur table: 2626
epoch: 1000
next table: 1953
cur table: 1943
epoch: 1000
next table: 2548
cur table: 2636
epoch: 1000
next table: 1993
cur table: 1953
epoch: 1000
next table: 2545
cur table: 2548
epoch: 1000
next table: 2032
cur table: 1993
epoch: 1000
next table: 2530
cur table: 2545
epoch: 1000
next table: 1971
cur table: 2032
epoch: 1000
next table: 2606
cur table: 2530
epoch: 1000
next table: 1969
cur table: 1971
epoch: 1000
next table: 2620
cur table: 2606
epoch: 1000
next table: 1959
cur table: 1969
epoch: 1000
next table: 2643
cur table: 2620
epoch: 1000
next table: 1963
cur table: 1959
epoch: 1000
next table: 2624
cur table: 2643
epoch: 1000
next table: 2544
cur table: 2624
epoch: 1000
next table: 2019
cur table: 1963
epoch: 1000
next table: 2610
cur table: 2544
epoch: 1000
next table: 1978
cur table: 2019
epoch: 1000
next table: 2603
cur table: 2610
epoch: 1000
next table: 1980
cur table: 1978
epoch: 1000
next table: 2603
cur table: 2603
epoch: 1000
next table: 1976
cur table: 1980
epoch: 1000
next table: 2558
cur table: 2603
epoch: 1000
next table: 2031
cur table: 1976
epoch: 1000
next table: 2526
cur table: 2558
epoch: 1000
next table: 2017
cur table: 2031
epoch: 1000
next table: 2585
cur table: 2526
epoch: 1000
next table: 2011
cur table: 2017
epoch: 1000
next table: 2576
cur table: 2585
epoch: 1000
next table: 1996
cur table: 2011
epoch: 1000
next table: 2605
cur table: 2576
epoch: 1000
next table: 1990
cur table: 1996
epoch: 1000
next table: 2600
cur table: 2605
epoch: 1000
next table: 1975
cur table: 1990
epoch: 1000
next table: 2564
cur table: 2600
epoch: 1000
next table: 2002
cur table: 1975
epoch: 1000
next table: 2563
cur table: 2564
epoch: 1000
next table: 2030
cur table: 2002
epoch: 1000
next table: 2574
cur table: 2563
epoch: 1000
next table: 2032
cur table: 2030
epoch: 1000
next table: 2517
cur table: 2574
epoch: 1000
next table: 2007
cur table: 2032
epoch: 1000
next table: 2603
cur table: 2517
epoch: 1000
next table: 1965
cur table: 2007
epoch: 1000
next table: 2614
cur table: 2603
epoch: 1000
next table: 1980
cur table: 1965
epoch: 1000
next table: 2597
cur table: 2614
epoch: 1000
next table: 1970
cur table: 1980
epoch: 1000
next table: 2597
cur table: 2597
epoch: 1000
next table: 1980
cur table: 1970
epoch: 1000
next table: 2595
cur table: 2597
epoch: 1000
next table: 1948
cur table: 1980
epoch: 1000
next table: 2607
cur table: 2595
epoch: 1000
next table: 1961
cur table: 1948
epoch: 1000
next table: 2586
cur table: 2607
epoch: 1000
next table: 2527
cur table: 2586
epoch: 1000
next table: 2002
cur table: 1961
epoch: 1000
next table: 2533
cur table: 2527
epoch: 1000
next table: 1979
cur table: 2002
epoch: 1000
next table: 2592
cur table: 2533
epoch: 1000
next table: 1978
cur table: 1979
epoch: 1000
next table: 2533
cur table: 2592
epoch: 1000
next table: 1983
cur table: 1978
epoch: 1000
next table: 2606
cur table: 2533
epoch: 1000
next table: 1924
cur table: 1983
epoch: 1000
next table: 2598
cur table: 2606
epoch: 1000
next table: 1938
cur table: 1924
epoch: 1000
next table: 2543
cur table: 2598
epoch: 1000
next table: 1984
cur table: 1938
epoch: 1000
next table: 2551
cur table: 2543
epoch: 1000
next table: 1968
cur table: 1984
epoch: 1000
next table: 2574
cur table: 2551
epoch: 1000
next table: 1949
cur table: 1968
epoch: 1000
next table: 2532
cur table: 2574
epoch: 1000
next table: 1955
cur table: 1949
epoch: 1000
next table: 2522
cur table: 2532
epoch: 1000
next table: 1967
cur table: 1955
epoch: 1000
next table: 2569
cur table: 2522
epoch: 1000
next table: 1954
cur table: 1967
epoch: 1000
next table: 2544
cur table: 2569
epoch: 1000
next table: 2095
cur table: 1954
epoch: 1000
next table: 2494
cur table: 2544
epoch: 1000
next table: 2509
cur table: 2494
epoch: 1000
next table: 2094
cur table: 2095
epoch: 1000
next table: 2521
cur table: 2509
epoch: 1000
next table: 2079
cur table: 2094
epoch: 1000
next table: 2575
cur table: 2521
epoch: 1000
next table: 2045
cur table: 2079
Heartbeat CPU 0 instructions: 10000003 cycles: 2902069 heartbeat IPC: 3.44582 cumulative IPC: 3.44582 (Simulation time: 0 hr 2 min 47 sec) 
epoch: 1000
next table: 2597
cur table: 2575
epoch: 1000
next table: 1948
cur table: 2045
epoch: 1000
next table: 2599
cur table: 2597
epoch: 1000
next table: 1911
cur table: 1948
epoch: 1000
next table: 2605
cur table: 2599
epoch: 1000
next table: 1941
cur table: 1911
epoch: 1000
next table: 2598
cur table: 2605
epoch: 1000
next table: 1943
cur table: 1941
epoch: 1000
next table: 2576
cur table: 2598
epoch: 1000
next table: 1969
cur table: 1943
epoch: 1000
next table: 2494
cur table: 2576
epoch: 1000
next table: 2063
cur table: 1969
epoch: 1000
next table: 2442
cur table: 2494
epoch: 1000
next table: 2063
cur table: 2063
epoch: 1000
next table: 2421
cur table: 2442
epoch: 1000
next table: 2079
cur table: 2063
epoch: 1000
next table: 2481
cur table: 2421
epoch: 1000
next table: 1996
cur table: 2079
epoch: 1000
next table: 2554
cur table: 2481
epoch: 1000
next table: 1985
cur table: 1996
epoch: 1000
next table: 2569
cur table: 2554
epoch: 1000
next table: 2545
cur table: 2569
epoch: 1000
next table: 1999
cur table: 1985
epoch: 1000
next table: 2615
cur table: 2545
epoch: 1000
next table: 1972
cur table: 1999
epoch: 1000
next table: 2628
cur table: 2615
epoch: 1000
next table: 1957
cur table: 1972
epoch: 1000
next table: 2574
cur table: 2628
epoch: 1000
next table: 2016
cur table: 1957
epoch: 1000
next table: 2600
cur table: 2574
epoch: 1000
next table: 1964
cur table: 2016
epoch: 1000
next table: 2567
cur table: 2600
epoch: 1000
next table: 1995
cur table: 1964
epoch: 1000
next table: 2633
cur table: 2567
epoch: 1000
next table: 1967
cur table: 1995
epoch: 1000
next table: 2553
cur table: 2633
epoch: 1000
next table: 2031
cur table: 1967
epoch: 1000
next table: 2562
cur table: 2553
epoch: 1000
next table: 1998
cur table: 2031
epoch: 1000
next table: 2565
cur table: 2562
epoch: 1000
next table: 2046
cur table: 1998
epoch: 1000
next table: 2562
cur table: 2565
epoch: 1000
next table: 1989
cur table: 2046
epoch: 1000
next table: 2612
cur table: 2562
epoch: 1000
next table: 2014
cur table: 1989
epoch: 1000
next table: 2558
cur table: 2612
epoch: 1000
next table: 1982
cur table: 2014
epoch: 1000
next table: 2598
cur table: 2558
epoch: 1000
next table: 2018
cur table: 1982
epoch: 1000
next table: 2590
cur table: 2598
epoch: 1000
next table: 1959
cur table: 2018
epoch: 1000
next table: 2624
cur table: 2590
epoch: 1000
next table: 1981
cur table: 1959
epoch: 1000
next table: 2644
cur table: 2624
epoch: 1000
next table: 1947
cur table: 1981
epoch: 1000
next table: 2641
cur table: 2644
epoch: 1000
next table: 1992
cur table: 1947
epoch: 1000
next table: 2602
cur table: 2641
epoch: 1000
next table: 1967
cur table: 1992
epoch: 1000
next table: 2623
cur table: 2602
epoch: 1000
next table: 1981
cur table: 1967
epoch: 1000
next table: 2606
cur table: 2623
epoch: 1000
next table: 1947
cur table: 1981
epoch: 1000
next table: 2633
cur table: 2606
epoch: 1000
next table: 2003
cur table: 1947
epoch: 1000
next table: 2585
cur table: 2633
epoch: 1000
next table: 1957
cur table: 2003
epoch: 1000
next table: 2614
cur table: 2585
epoch: 1000
next table: 1995
cur table: 1957
epoch: 1000
next table: 2591
cur table: 2614
epoch: 1000
next table: 2553
cur table: 2591
epoch: 1000
next table: 2003
cur table: 1995
epoch: 1000
next table: 2599
cur table: 2553
epoch: 1000
next table: 1997
cur table: 2003
epoch: 1000
next table: 2564
cur table: 2599
epoch: 1000
next table: 1995
cur table: 1997
epoch: 1000
next table: 2568
cur table: 2564
epoch: 1000
next table: 2009
cur table: 1995
epoch: 1000
next table: 2574
cur table: 2568
epoch: 1000
next table: 1981
cur table: 2009
epoch: 1000
next table: 2582
cur table: 2574
epoch: 1000
next table: 2005
cur table: 1981
epoch: 1000
next table: 2634
cur table: 2582
epoch: 1000
next table: 1960
cur table: 2005
epoch: 1000
next table: 2616
cur table: 2634
epoch: 1000
next table: 1971
cur table: 1960
epoch: 1000
next table: 2593
cur table: 2616
epoch: 1000
next table: 1996
cur table: 1971
epoch: 1000
next table: 2626
cur table: 2593
epoch: 1000
next table: 1946
cur table: 1996
epoch: 1000
next table: 2613
cur table: 2626
epoch: 1000
next table: 1970
cur table: 1946
epoch: 1000
next table: 2642
cur table: 2613
epoch: 1000
next table: 1963
cur table: 1970
epoch: 1000
next table: 2556
cur table: 2642
epoch: 1000
next table: 1999
cur table: 1963
epoch: 1000
next table: 2625
cur table: 2556
epoch: 1000
next table: 1996
cur table: 1999
epoch: 1000
next table: 2571
cur table: 2625
epoch: 1000
next table: 1983
cur table: 1996
epoch: 1000
next table: 2608
cur table: 2571
epoch: 1000
next table: 2036
cur table: 1983
epoch: 1000
next table: 2528
cur table: 2608
epoch: 1000
next table: 2021
cur table: 2036
epoch: 1000
next table: 2547
cur table: 2528
epoch: 1000
next table: 2009
cur table: 2021
epoch: 1000
next table: 2591
cur table: 2547
epoch: 1000
next table: 1995
cur table: 2009
epoch: 1000
next table: 2563
cur table: 2591
epoch: 1000
next table: 1993
cur table: 1995
epoch: 1000
next table: 2565
cur table: 2563
epoch: 1000
next table: 2038
cur table: 1993
epoch: 1000
next table: 2527
cur table: 2565
epoch: 1000
next table: 2560
cur table: 2527
epoch: 1000
next table: 2000
cur table: 2038
epoch: 1000
next table: 2606
cur table: 2560
epoch: 1000
next table: 1978
cur table: 2000
epoch: 1000
next table: 2604
cur table: 2606
epoch: 1000
next table: 1978
cur table: 1978
epoch: 1000
next table: 2630
cur table: 2604
epoch: 1000
next table: 1969
cur table: 1978
epoch: 1000
next table: 2626
cur table: 2630
epoch: 1000
next table: 1963
cur table: 1969
epoch: 1000
next table: 2600
cur table: 2626
epoch: 1000
next table: 1981
cur table: 1963
epoch: 1000
next table: 2619
cur table: 2600
epoch: 1000
next table: 1969
cur table: 1981
epoch: 1000
next table: 2525
cur table: 2619
epoch: 1000
next table: 2051
cur table: 1969
epoch: 1000
next table: 2548
cur table: 2525
epoch: 1000
next table: 1983
cur table: 2051
epoch: 1000
next table: 2544
cur table: 2548
epoch: 1000
next table: 2032
cur table: 1983
epoch: 1000
next table: 2566
cur table: 2544
epoch: 1000
next table: 1978
cur table: 2032
epoch: 1000
next table: 2578
cur table: 2566
epoch: 1000
next table: 1996
cur table: 1978
epoch: 1000
next table: 2582
cur table: 2578
epoch: 1000
next table: 2013
cur table: 1996
epoch: 1000
next table: 2558
cur table: 2582
epoch: 1000
next table: 2027
cur table: 2013
epoch: 1000
next table: 2541
cur table: 2558
epoch: 1000
next table: 2024
cur table: 2027
epoch: 1000
next table: 2535
cur table: 2541
epoch: 1000
next table: 2019
cur table: 2024
epoch: 1000
next table: 2553
cur table: 2535
epoch: 1000
next table: 1968
cur table: 2019
epoch: 1000
next table: 2595
cur table: 2553
epoch: 1000
next table: 1993
cur table: 1968
epoch: 1000
next table: 2593
cur table: 2595
epoch: 1000
next table: 1953
cur table: 1993
epoch: 1000
next table: 2637
cur table: 2593
epoch: 1000
next table: 2609
cur table: 2637
epoch: 1000
next table: 1979
cur table: 1953
epoch: 1000
next table: 2634
cur table: 2609
epoch: 1000
next table: 1977
cur table: 1979
epoch: 1000
next table: 2537
cur table: 2634
epoch: 1000
next table: 2017
cur table: 1977
epoch: 1000
next table: 2630
cur table: 2537
epoch: 1000
next table: 1962
cur table: 2017
epoch: 1000
next table: 2567
cur table: 2630
epoch: 1000
next table: 2004
cur table: 1962
epoch: 1000
next table: 2636
cur table: 2567
epoch: 1000
next table: 1965
cur table: 2004
epoch: 1000
next table: 2625
cur table: 2636
epoch: 1000
next table: 1965
cur table: 1965
epoch: 1000
next table: 2623
cur table: 2625
epoch: 1000
next table: 1966
cur table: 1965
epoch: 1000
next table: 2623
cur table: 2623
epoch: 1000
next table: 1989
cur table: 1966
epoch: 1000
next table: 2578
cur table: 2623
epoch: 1000
next table: 2004
cur table: 1989
epoch: 1000
next table: 2611
cur table: 2578
epoch: 1000
next table: 1969
cur table: 2004
epoch: 1000
next table: 2598
cur table: 2611
epoch: 1000
next table: 2003
cur table: 1969
epoch: 1000
next table: 2582
cur table: 2598
epoch: 1000
next table: 1987
cur table: 2003
epoch: 1000
next table: 2590
cur table: 2582
epoch: 1000
next table: 2007
cur table: 1987
epoch: 1000
next table: 2585
cur table: 2590
epoch: 1000
next table: 1992
cur table: 2007
epoch: 1000
next table: 2604
cur table: 2585
epoch: 1000
next table: 2014
cur table: 1992
epoch: 1000
next table: 2556
cur table: 2604
epoch: 1000
next table: 1998
cur table: 2014
epoch: 1000
next table: 2611
cur table: 2556
epoch: 1000
next table: 2013
cur table: 1998
epoch: 1000
next table: 2573
cur table: 2611
epoch: 1000
next table: 1990
cur table: 2013
epoch: 1000
next table: 2609
cur table: 2573
epoch: 1000
next table: 1993
cur table: 1990
epoch: 1000
next table: 2599
cur table: 2609
epoch: 1000
next table: 2008
cur table: 1993
epoch: 1000
next table: 2581
cur table: 2599
epoch: 1000
next table: 2006
cur table: 2008
epoch: 1000
next table: 2554
cur table: 2581
epoch: 1000
next table: 1982
cur table: 2006
epoch: 1000
next table: 2614
cur table: 2554
epoch: 1000
next table: 1979
cur table: 1982
epoch: 1000
next table: 2624
cur table: 2614
epoch: 1000
next table: 1966
cur table: 1979
epoch: 1000
next table: 2638
cur table: 2624
epoch: 1000
next table: 1973
cur table: 1966
epoch: 1000
next table: 2611
cur table: 2638
epoch: 1000
next table: 2612
cur table: 2611
epoch: 1000
next table: 1986
cur table: 1973
epoch: 1000
next table: 2603
cur table: 2612
epoch: 1000
next table: 1973
cur table: 1986
epoch: 1000
next table: 2617
cur table: 2603
epoch: 1000
next table: 1979
cur table: 1973
epoch: 1000
next table: 2651
cur table: 2617
epoch: 1000
next table: 1956
cur table: 1979
epoch: 1000
next table: 2549
cur table: 2651
epoch: 1000
next table: 2015
cur table: 1956
epoch: 1000
next table: 2583
cur table: 2549
epoch: 1000
next table: 2000
cur table: 2015
epoch: 1000
next table: 2588
cur table: 2583
epoch: 1000
next table: 1996
cur table: 2000
epoch: 1000
next table: 2588
cur table: 2588
epoch: 1000
next table: 1985
cur table: 1996
epoch: 1000
next table: 2590
cur table: 2588
epoch: 1000
next table: 2015
cur table: 1985
epoch: 1000
next table: 2520
cur table: 2590
epoch: 1000
next table: 2032
cur table: 2015
epoch: 1000
next table: 2643
cur table: 2520
epoch: 1000
next table: 1967
cur table: 2032
epoch: 1000
next table: 2571
cur table: 2643
epoch: 1000
next table: 2041
cur table: 1967
epoch: 1000
next table: 2586
cur table: 2571
epoch: 1000
next table: 2002
cur table: 2041
epoch: 1000
next table: 2536
cur table: 2586
epoch: 1000
next table: 2027
cur table: 2002
epoch: 1000
next table: 2587
cur table: 2536
epoch: 1000
next table: 1994
cur table: 2027
epoch: 1000
next table: 2587
cur table: 2587
epoch: 1000
next table: 2008
cur table: 1994
epoch: 1000
next table: 2566
cur table: 2587
epoch: 1000
next table: 1975
cur table: 2008
epoch: 1000
next table: 2606
cur table: 2566
epoch: 1000
next table: 1996
cur table: 1975
epoch: 1000
next table: 2577
cur table: 2606
epoch: 1000
next table: 1992
cur table: 1996
epoch: 1000
next table: 2590
cur table: 2577
epoch: 1000
next table: 1998
cur table: 1992
epoch: 1000
next table: 2552
cur table: 2590
epoch: 1000
next table: 1980
cur table: 1998
epoch: 1000
next table: 2608
cur table: 2552
epoch: 1000
next table: 2562
cur table: 2608
epoch: 1000
next table: 2006
cur table: 1980
epoch: 1000
next table: 2593
cur table: 2562
epoch: 1000
next table: 1984
cur table: 2006
epoch: 1000
next table: 2609
cur table: 2593
epoch: 1000
next table: 1969
cur table: 1984
epoch: 1000
next table: 2536
cur table: 2609
epoch: 1000
next table: 2002
cur table: 1969
epoch: 1000
next table: 2584
cur table: 2536
epoch: 1000
next table: 1974
cur table: 2002
epoch: 1000
next table: 2552
cur table: 2584
epoch: 1000
next table: 1978
cur table: 1974
epoch: 1000
next table: 2599
cur table: 2552
epoch: 1000
next table: 1993
cur table: 1978
epoch: 1000
next table: 2494
cur table: 2599
epoch: 1000
next table: 2015
cur table: 1993
epoch: 1000
next table: 2559
cur table: 2494
epoch: 1000
next table: 1999
cur table: 2015
epoch: 1000
next table: 2553
cur table: 2559
epoch: 1000
next table: 1962
cur table: 1999
epoch: 1000
next table: 2582
cur table: 2553
epoch: 1000
next table: 1974
cur table: 1962
epoch: 1000
next table: 2612
cur table: 2582
epoch: 1000
next table: 1979
cur table: 1974
epoch: 1000
next table: 2605
cur table: 2612
epoch: 1000
next table: 1981
cur table: 1979
epoch: 1000
next table: 2532
cur table: 2605
epoch: 1000
next table: 2004
cur table: 1981
epoch: 1000
next table: 2579
cur table: 2532
epoch: 1000
next table: 2034
cur table: 2004
epoch: 1000
next table: 2529
cur table: 2579
epoch: 1000
next table: 2023
cur table: 2034
epoch: 1000
next table: 2534
cur table: 2529
epoch: 1000
next table: 2623
cur table: 2534
epoch: 1000
next table: 1966
cur table: 2023
epoch: 1000
next table: 2602
cur table: 2623
epoch: 1000
next table: 1984
cur table: 1966
epoch: 1000
next table: 2588
cur table: 2602
epoch: 1000
next table: 1991
cur table: 1984
epoch: 1000
next table: 2609
cur table: 2588
epoch: 1000
next table: 1981
cur table: 1991
epoch: 1000
next table: 2578
cur table: 2609
epoch: 1000
next table: 1987
cur table: 1981
epoch: 1000
next table: 2561
cur table: 2578
epoch: 1000
next table: 2017
cur table: 1987
epoch: 1000
next table: 2600
cur table: 2561
epoch: 1000
next table: 1962
cur table: 2017
epoch: 1000
next table: 2634
cur table: 2600
epoch: 1000
next table: 1972
cur table: 1962
epoch: 1000
next table: 2607
cur table: 2634
epoch: 1000
next table: 1999
cur table: 1972
epoch: 1000
next table: 2598
cur table: 2607
epoch: 1000
next table: 1972
cur table: 1999
epoch: 1000
next table: 2555
cur table: 2598
epoch: 1000
next table: 2051
cur table: 1972
epoch: 1000
next table: 2586
cur table: 2555
epoch: 1000
next table: 2009
cur table: 2051
epoch: 1000
next table: 2536
cur table: 2586
epoch: 1000
next table: 2039
cur table: 2009
epoch: 1000
next table: 2536
cur table: 2536
epoch: 1000
next table: 2014
cur table: 2039
epoch: 1000
next table: 2543
cur table: 2536
epoch: 1000
next table: 1981
cur table: 2014
epoch: 1000
next table: 2596
cur table: 2543
epoch: 1000
next table: 2019
cur table: 1981
epoch: 1000
next table: 2561
cur table: 2596
epoch: 1000
next table: 2025
cur table: 2019
epoch: 1000
next table: 2543
cur table: 2561
epoch: 1000
next table: 2027
cur table: 2025
epoch: 1000
next table: 2535
cur table: 2543
epoch: 1000
next table: 1986
cur table: 2027
epoch: 1000
next table: 2575
cur table: 2535
epoch: 1000
next table: 2580
cur table: 2575
epoch: 1000
next table: 1988
cur table: 1986
epoch: 1000
next table: 2563
cur table: 2580
epoch: 1000
next table: 1991
cur table: 1988
epoch: 1000
next table: 2544
cur table: 2563
epoch: 1000
next table: 2022
cur table: 1991
epoch: 1000
next table: 2552
cur table: 2544
epoch: 1000
next table: 2006
cur table: 2022
epoch: 1000
next table: 2525
cur table: 2552
epoch: 1000
next table: 2023
cur table: 2006
epoch: 1000
next table: 2531
cur table: 2525
epoch: 1000
next table: 2010
cur table: 2023
epoch: 1000
next table: 2644
cur table: 2531
epoch: 1000
next table: 1965
cur table: 2010
epoch: 1000
next table: 2593
cur table: 2644
epoch: 1000
next table: 1994
cur table: 1965
epoch: 1000
next table: 2603
cur table: 2593
epoch: 1000
next table: 1962
cur table: 1994
epoch: 1000
next table: 2634
cur table: 2603
epoch: 1000
next table: 1976
cur table: 1962
epoch: 1000
next table: 2609
cur table: 2634
epoch: 1000
next table: 1960
cur table: 1976
epoch: 1000
next table: 2647
cur table: 2609
epoch: 1000
next table: 1947
cur table: 1960
epoch: 1000
next table: 2648
cur table: 2647
epoch: 1000
next table: 1970
cur table: 1947
epoch: 1000
next table: 2618
cur table: 2648
epoch: 1000
next table: 1971
cur table: 1970
epoch: 1000
next table: 2618
cur table: 2618
epoch: 1000
next table: 1996
cur table: 1971
epoch: 1000
next table: 2601
cur table: 2618
epoch: 1000
next table: 1984
cur table: 1996
epoch: 1000
next table: 2622
cur table: 2601
epoch: 1000
next table: 1976
cur table: 1984
epoch: 1000
next table: 2630
cur table: 2622
epoch: 1000
next table: 1990
cur table: 1976
epoch: 1000
next table: 2567
cur table: 2630
epoch: 1000
next table: 1997
cur table: 1990
epoch: 1000
next table: 2609
cur table: 2567
epoch: 1000
next table: 2005
cur table: 1997
epoch: 1000
next table: 2560
cur table: 2609
epoch: 1000
next table: 2001
cur table: 2005
epoch: 1000
next table: 2577
cur table: 2560
epoch: 1000
next table: 1978
cur table: 2001
epoch: 1000
next table: 2577
cur table: 2577
epoch: 1000
next table: 1974
cur table: 1978
epoch: 1000
next table: 2610
cur table: 2577
epoch: 1000
next table: 2602
cur table: 2610
epoch: 1000
next table: 1971
cur table: 1974
epoch: 1000
next table: 2614
cur table: 2602
epoch: 1000
next table: 1983
cur table: 1971
epoch: 1000
next table: 2647
cur table: 2614
epoch: 1000
next table: 1939
cur table: 1983
epoch: 1000
next table: 2597
cur table: 2647
epoch: 1000
next table: 1986
cur table: 1939
epoch: 1000
next table: 2562
cur table: 2597
epoch: 1000
next table: 1999
cur table: 1986
epoch: 1000
next table: 2547
cur table: 2562
epoch: 1000
next table: 2013
cur table: 1999
epoch: 1000
next table: 2587
cur table: 2547
epoch: 1000
next table: 1986
cur table: 2013
epoch: 1000
next table: 2569
cur table: 2587
epoch: 1000
next table: 1989
cur table: 1986
epoch: 1000
next table: 2592
cur table: 2569
epoch: 1000
next table: 1966
cur table: 1989
epoch: 1000
next table: 2629
cur table: 2592
epoch: 1000
next table: 1989
cur table: 1966
epoch: 1000
next table: 2566
cur table: 2629
epoch: 1000
next table: 1999
cur table: 1989
epoch: 1000
next table: 2598
cur table: 2566
epoch: 1000
next table: 1980
cur table: 1999
epoch: 1000
next table: 2553
cur table: 2598
epoch: 1000
next table: 2022
cur table: 1980
epoch: 1000
next table: 2582
cur table: 2553
epoch: 1000
next table: 1979
cur table: 2022
epoch: 1000
next table: 2606
cur table: 2582
epoch: 1000
next table: 1994
cur table: 1979
epoch: 1000
next table: 2597
cur table: 2606
epoch: 1000
next table: 1978
cur table: 1994
epoch: 1000
next table: 2555
cur table: 2597
epoch: 1000
next table: 2004
cur table: 1978
epoch: 1000
next table: 2610
cur table: 2555
epoch: 1000
next table: 1960
cur table: 2004
epoch: 1000
next table: 2584
cur table: 2610
epoch: 1000
next table: 2018
cur table: 1960
epoch: 1000
next table: 2578
cur table: 2584
epoch: 1000
next table: 1955
cur table: 2018
epoch: 1000
next table: 2629
cur table: 2578
epoch: 1000
next table: 1996
cur table: 1955
epoch: 1000
next table: 2634
cur table: 2629
epoch: 1000
next table: 1946
cur table: 1996
epoch: 1000
next table: 2603
cur table: 2634
epoch: 1000
next table: 2027
cur table: 1946
epoch: 1000
next table: 2578
cur table: 2603
epoch: 1000
next table: 2582
cur table: 2578
epoch: 1000
next table: 1969
cur table: 2027
epoch: 1000
next table: 2600
cur table: 2582
epoch: 1000
next table: 2015
cur table: 1969
epoch: 1000
next table: 2599
cur table: 2600
epoch: 1000
next table: 1964
cur table: 2015
epoch: 1000
next table: 2596
cur table: 2599
epoch: 1000
next table: 1996
cur table: 1964
epoch: 1000
next table: 2520
cur table: 2596
epoch: 1000
next table: 2040
cur table: 1996
epoch: 1000
next table: 2582
cur table: 2520
epoch: 1000
next table: 1974
cur table: 2040
epoch: 1000
next table: 2594
cur table: 2582
epoch: 1000
next table: 1979
cur table: 1974
epoch: 1000
next table: 2603
cur table: 2594
epoch: 1000
next table: 1981
cur table: 1979
epoch: 1000
next table: 2599
cur table: 2603
epoch: 1000
next table: 1982
cur table: 1981
epoch: 1000
next table: 2615
cur table: 2599
epoch: 1000
next table: 1962
cur table: 1982
epoch: 1000
next table: 2645
cur table: 2615
epoch: 1000
next table: 1959
cur table: 1962
epoch: 1000
next table: 2588
cur table: 2645
epoch: 1000
next table: 1967
cur table: 1959
epoch: 1000
next table: 2616
cur table: 2588
epoch: 1000
next table: 1969
cur table: 1967
epoch: 1000
next table: 2568
cur table: 2616
epoch: 1000
next table: 1996
cur table: 1969
epoch: 1000
next table: 2589
cur table: 2568
epoch: 1000
next table: 2004
cur table: 1996
epoch: 1000
next table: 2544
cur table: 2589
epoch: 1000
next table: 2003
cur table: 2004
epoch: 1000
next table: 2575
cur table: 2544
epoch: 1000
next table: 2012
cur table: 2003
epoch: 1000
next table: 2581
cur table: 2575
epoch: 1000
next table: 1988
cur table: 2012
epoch: 1000
next table: 2587
cur table: 2581
epoch: 1000
next table: 2016
cur table: 1988
epoch: 1000
next table: 2556
cur table: 2587
epoch: 1000
next table: 1998
cur table: 2016
epoch: 1000
next table: 2569
cur table: 2556
epoch: 1000
next table: 2003
cur table: 1998
epoch: 1000
next table: 2591
cur table: 2569
epoch: 1000
next table: 2595
cur table: 2591
epoch: 1000
next table: 1974
cur table: 2003
epoch: 1000
next table: 2600
cur table: 2595
epoch: 1000
next table: 2015
cur table: 1974
epoch: 1000
next table: 2554
cur table: 2600
epoch: 1000
next table: 2011
cur table: 2015
epoch: 1000
next table: 2611
cur table: 2554
epoch: 1000
next table: 2010
cur table: 2011
epoch: 1000
next table: 2498
cur table: 2611
epoch: 1000
next table: 2045
cur table: 2010
epoch: 1000
next table: 2591
cur table: 2498
epoch: 1000
next table: 2024
cur table: 2045
epoch: 1000
next table: 2530
cur table: 2591
epoch: 1000
next table: 2031
cur table: 2024
epoch: 1000
next table: 2580
cur table: 2530
epoch: 1000
next table: 1992
cur table: 2031
epoch: 1000
next table: 2567
cur table: 2580
epoch: 1000
next table: 2003
cur table: 1992
epoch: 1000
next table: 2599
cur table: 2567
epoch: 1000
next table: 1987
cur table: 2003
epoch: 1000
next table: 2574
cur table: 2599
epoch: 1000
next table: 2020
cur table: 1987
epoch: 1000
next table: 2552
cur table: 2574
epoch: 1000
next table: 2009
cur table: 2020
epoch: 1000
next table: 2524
cur table: 2552
epoch: 1000
next table: 2054
cur table: 2009
epoch: 1000
next table: 2520
cur table: 2524
epoch: 1000
next table: 1990
cur table: 2054
epoch: 1000
next table: 2554
cur table: 2520
epoch: 1000
next table: 2041
cur table: 1990
epoch: 1000
next table: 2537
cur table: 2554
epoch: 1000
next table: 1953
cur table: 2041
epoch: 1000
next table: 2606
cur table: 2537
epoch: 1000
next table: 2622
cur table: 2606
epoch: 1000
next table: 1990
cur table: 1953
epoch: 1000
next table: 2597
cur table: 2622
epoch: 1000
next table: 1957
cur table: 1990
epoch: 1000
next table: 2604
cur table: 2597
epoch: 1000
next table: 2009
cur table: 1957
epoch: 1000
next table: 2561
cur table: 2604
epoch: 1000
next table: 1998
cur table: 2009
epoch: 1000
next table: 2529
cur table: 2561
epoch: 1000
next table: 2030
cur table: 1998
epoch: 1000
next table: 2549
cur table: 2529
epoch: 1000
next table: 1996
cur table: 2030
epoch: 1000
next table: 2563
cur table: 2549
epoch: 1000
next table: 2015
cur table: 1996
epoch: 1000
next table: 2562
cur table: 2563
epoch: 1000
next table: 1984
cur table: 2015
epoch: 1000
next table: 2585
cur table: 2562
epoch: 1000
next table: 1977
cur table: 1984
epoch: 1000
next table: 2639
cur table: 2585
epoch: 1000
next table: 1944
cur table: 1977
epoch: 1000
next table: 2639
cur table: 2639
epoch: 1000
next table: 1959
cur table: 1944
epoch: 1000
next table: 2647
cur table: 2639
epoch: 1000
next table: 1951
cur table: 1959
epoch: 1000
next table: 2591
cur table: 2647
epoch: 1000
next table: 1979
cur table: 1951
epoch: 1000
next table: 2598
cur table: 2591
epoch: 1000
next table: 2001
cur table: 1979
epoch: 1000
next table: 2529
cur table: 2598
epoch: 1000
next table: 2047
cur table: 2001
epoch: 1000
next table: 2542
cur table: 2529
epoch: 1000
next table: 2003
cur table: 2047
epoch: 1000
next table: 2564
cur table: 2542
epoch: 1000
next table: 2012
cur table: 2003
epoch: 1000
next table: 2566
cur table: 2564
epoch: 1000
next table: 2011
cur table: 2012
epoch: 1000
next table: 2552
cur table: 2566
epoch: 1000
next table: 2004
cur table: 2011
epoch: 1000
next table: 2604
cur table: 2552
epoch: 1000
next table: 2569
cur table: 2604
epoch: 1000
next table: 1989
cur table: 2004
epoch: 1000
next table: 2550
cur table: 2569
epoch: 1000
next table: 2035
cur table: 1989
epoch: 1000
next table: 2563
cur table: 2550
epoch: 1000
next table: 1995
cur table: 2035
epoch: 1000
next table: 2558
cur table: 2563
epoch: 1000
next table: 2039
cur table: 1995
epoch: 1000
next table: 2570
cur table: 2558
epoch: 1000
next table: 1990
cur table: 2039
epoch: 1000
next table: 2590
cur table: 2570
epoch: 1000
next table: 2009
cur table: 1990
epoch: 1000
next table: 2597
cur table: 2590
epoch: 1000
next table: 1953
cur table: 2009
epoch: 1000
next table: 2571
cur table: 2597
epoch: 1000
next table: 1998
cur table: 1953
epoch: 1000
next table: 2620
cur table: 2571
epoch: 1000
next table: 1974
cur table: 1998
epoch: 1000
next table: 2536
cur table: 2620
epoch: 1000
next table: 2004
cur table: 1974
epoch: 1000
next table: 2588
cur table: 2536
epoch: 1000
next table: 1962
cur table: 2004
epoch: 1000
next table: 2564
cur table: 2588
epoch: 1000
next table: 1967
cur table: 1962
epoch: 1000
next table: 2616
cur table: 2564
epoch: 1000
next table: 1935
cur table: 1967
epoch: 1000
next table: 2587
cur table: 2616
epoch: 1000
next table: 2005
cur table: 1935
epoch: 1000
next table: 2580
cur table: 2587
epoch: 1000
next table: 1964
cur table: 2005
epoch: 1000
next table: 2599
cur table: 2580
epoch: 1000
next table: 1972
cur table: 1964
epoch: 1000
next table: 2586
cur table: 2599
epoch: 1000
next table: 1992
cur table: 1972
epoch: 1000
next table: 2558
cur table: 2586
epoch: 1000
next table: 1975
cur table: 1992
epoch: 1000
next table: 2604
cur table: 2558
epoch: 1000
next table: 1989
cur table: 1975
epoch: 1000
next table: 2575
cur table: 2604
epoch: 1000
next table: 2561
cur table: 2575
epoch: 1000
next table: 1998
cur table: 1989
epoch: 1000
next table: 2572
cur table: 2561
epoch: 1000
next table: 1990
cur table: 1998
epoch: 1000
next table: 2578
cur table: 2572
epoch: 1000
next table: 2003
cur table: 1990
epoch: 1000
next table: 2561
cur table: 2578
epoch: 1000
next table: 2012
cur table: 2003
epoch: 1000
next table: 2616
cur table: 2561
epoch: 1000
next table: 1976
cur table: 2012
epoch: 1000
next table: 2581
cur table: 2616
epoch: 1000
next table: 2020
cur table: 1976
epoch: 1000
next table: 2594
cur table: 2581
epoch: 1000
next table: 1976
cur table: 2020
epoch: 1000
next table: 2611
cur table: 2594
epoch: 1000
next table: 2044
cur table: 1976
epoch: 1000
next table: 2535
cur table: 2611
epoch: 1000
next table: 1972
cur table: 2044
epoch: 1000
next table: 2569
cur table: 2535
epoch: 1000
next table: 2035
cur table: 1972
epoch: 1000
next table: 2563
cur table: 2569
epoch: 1000
next table: 1986
cur table: 2035
epoch: 1000
next table: 2570
cur table: 2563
epoch: 1000
next table: 2006
cur table: 1986
epoch: 1000
next table: 2616
cur table: 2570
epoch: 1000
next table: 1989
cur table: 2006
epoch: 1000
next table: 2609
cur table: 2616
epoch: 1000
next table: 2026
cur table: 1989
epoch: 1000
next table: 2554
cur table: 2609
epoch: 1000
next table: 1989
cur table: 2026
epoch: 1000
next table: 2611
cur table: 2554
epoch: 1000
next table: 2004
cur table: 1989
epoch: 1000
next table: 2599
cur table: 2611
epoch: 1000
next table: 2007
cur table: 2004
epoch: 1000
next table: 2596
cur table: 2599
epoch: 1000
next table: 1999
cur table: 2007
epoch: 1000
next table: 2579
cur table: 2596
epoch: 1000
next table: 2026
cur table: 1999
epoch: 1000
next table: 2566
cur table: 2579
epoch: 1000
next table: 1993
cur table: 2026
epoch: 1000
next table: 2585
cur table: 2566
epoch: 1000
next table: 2625
cur table: 2585
epoch: 1000
next table: 1996
cur table: 1993
epoch: 1000
next table: 2534
cur table: 2625
epoch: 1000
next table: 2029
cur table: 1996
epoch: 1000
next table: 2574
cur table: 2534
epoch: 1000
next table: 2015
cur table: 2029
epoch: 1000
next table: 2545
cur table: 2574
epoch: 1000
next table: 2014
cur table: 2015
epoch: 1000
next table: 2579
cur table: 2545
epoch: 1000
next table: 1992
cur table: 2014
epoch: 1000
next table: 2575
cur table: 2579
epoch: 1000
next table: 1999
cur table: 1992
epoch: 1000
next table: 2565
cur table: 2575
epoch: 1000
next table: 1998
cur table: 1999
epoch: 1000
next table: 2586
cur table: 2565
epoch: 1000
next table: 1987
cur table: 1998
epoch: 1000
next table: 2595
cur table: 2586
epoch: 1000
next table: 1972
cur table: 1987
epoch: 1000
next table: 2587
cur table: 2595
epoch: 1000
next table: 1961
cur table: 1972
epoch: 1000
next table: 2583
cur table: 2587
epoch: 1000
next table: 1984
cur table: 1961
epoch: 1000
next table: 2582
cur table: 2583
epoch: 1000
next table: 1952
cur table: 1984
epoch: 1000
next table: 2563
cur table: 2582
epoch: 1000
next table: 1999
cur table: 1952
epoch: 1000
next table: 2607
cur table: 2563
epoch: 1000
next table: 1959
cur table: 1999
epoch: 1000
next table: 2593
cur table: 2607
epoch: 1000
next table: 1981
cur table: 1959
epoch: 1000
next table: 2605
cur table: 2593
epoch: 1000
next table: 1979
cur table: 1981
epoch: 1000
next table: 2618
cur table: 2605
epoch: 1000
next table: 1944
cur table: 1979
epoch: 1000
next table: 2609
cur table: 2618
epoch: 1000
next table: 1987
cur table: 1944
epoch: 1000
next table: 2608
cur table: 2609
epoch: 1000
next table: 1961
cur table: 1987
epoch: 1000
next table: 2593
cur table: 2608
epoch: 1000
next table: 1973
cur table: 1961
epoch: 1000
next table: 2599
cur table: 2593
epoch: 1000
next table: 2541
cur table: 2599
epoch: 1000
next table: 2018
cur table: 1973
epoch: 1000
next table: 2515
cur table: 2541
epoch: 1000
next table: 2045
cur table: 2018
epoch: 1000
next table: 2529
cur table: 2515
epoch: 1000
next table: 2024
cur table: 2045
epoch: 1000
next table: 2529
cur table: 2529
epoch: 1000
next table: 2030
cur table: 2024
epoch: 1000
next table: 2595
cur table: 2529
epoch: 1000
next table: 1969
cur table: 2030
epoch: 1000
next table: 2595
cur table: 2595
epoch: 1000
next table: 2004
cur table: 1969
epoch: 1000
next table: 2583
cur table: 2595
epoch: 1000
next table: 2010
cur table: 2004
epoch: 1000
next table: 2579
cur table: 2583
epoch: 1000
next table: 1997
cur table: 2010
epoch: 1000
next table: 2577
cur table: 2579
epoch: 1000
next table: 2015
cur table: 1997
epoch: 1000
next table: 2541
cur table: 2577
epoch: 1000
next table: 2044
cur table: 2015
epoch: 1000
next table: 2538
cur table: 2541
epoch: 1000
next table: 2071
cur table: 2044
epoch: 1000
next table: 2454
cur table: 2538
epoch: 1000
next table: 2082
cur table: 2071
epoch: 1000
next table: 2472
cur table: 2454
epoch: 1000
next table: 2060
cur table: 2082
epoch: 1000
next table: 2510
cur table: 2472
epoch: 1000
next table: 2498
cur table: 2510
epoch: 1000
next table: 2048
cur table: 2060
epoch: 1000
next table: 2589
cur table: 2498
epoch: 1000
next table: 2015
cur table: 2048
epoch: 1000
next table: 2591
cur table: 2589
epoch: 1000
next table: 1984
cur table: 2015
epoch: 1000
next table: 2622
cur table: 2591
epoch: 1000
next table: 1995
cur table: 1984
epoch: 1000
next table: 2572
cur table: 2622
epoch: 1000
next table: 1986
cur table: 1995
epoch: 1000
next table: 2596
cur table: 2572
epoch: 1000
next table: 2006
cur table: 1986
epoch: 1000
next table: 2549
cur table: 2596
epoch: 1000
next table: 2012
cur table: 2006
epoch: 1000
next table: 2584
cur table: 2549
epoch: 1000
next table: 2019
cur table: 2012
epoch: 1000
next table: 2530
cur table: 2584
epoch: 1000
next table: 2018
cur table: 2019
epoch: 1000
next table: 2562
cur table: 2530
epoch: 1000
next table: 2042
cur table: 2018
epoch: 1000
next table: 2534
cur table: 2562
epoch: 1000
next table: 2003
cur table: 2042
epoch: 1000
next table: 2569
cur table: 2534
epoch: 1000
next table: 1994
cur table: 2003
epoch: 1000
next table: 2597
cur table: 2569
epoch: 1000
next table: 1981
cur table: 1994
epoch: 1000
next table: 2577
cur table: 2597
epoch: 1000
next table: 2014
cur table: 1981
epoch: 1000
next table: 2546
cur table: 2577
epoch: 1000
next table: 1971
cur table: 2014
epoch: 1000
next table: 2600
cur table: 2546
epoch: 1000
next table: 1968
cur table: 1971
epoch: 1000
next table: 2619
cur table: 2600
epoch: 1000
next table: 1964
cur table: 1968
epoch: 1000
next table: 2583
cur table: 2619
epoch: 1000
next table: 1978
cur table: 1964
epoch: 1000
next table: 2605
cur table: 2583
epoch: 1000
next table: 1925
cur table: 1978
epoch: 1000
next table: 2648
cur table: 2605
epoch: 1000
next table: 2546
cur table: 2648
epoch: 1000
next table: 2010
cur table: 1925
epoch: 1000
next table: 2598
cur table: 2546
epoch: 1000
next table: 1957
cur table: 2010
epoch: 1000
next table: 2594
cur table: 2598
epoch: 1000
next table: 1962
cur table: 1957
epoch: 1000
next table: 2620
cur table: 2594
epoch: 1000
next table: 1939
cur table: 1962
epoch: 1000
next table: 2614
cur table: 2620
epoch: 1000
next table: 1970
cur table: 1939
epoch: 1000
next table: 2506
cur table: 2614
epoch: 1000
next table: 2003
cur table: 1970
epoch: 1000
next table: 2587
cur table: 2506
epoch: 1000
next table: 1997
cur table: 2003
epoch: 1000
next table: 2550
cur table: 2587
epoch: 1000
next table: 1975
cur table: 1997
epoch: 1000
next table: 2581
cur table: 2550
epoch: 1000
next table: 1989
cur table: 1975
epoch: 1000
next table: 2596
cur table: 2581
epoch: 1000
next table: 1987
cur table: 1989
epoch: 1000
next table: 2567
cur table: 2596
epoch: 1000
next table: 1993
cur table: 1987
epoch: 1000
next table: 2596
cur table: 2567
epoch: 1000
next table: 1973
cur table: 1993
epoch: 1000
next table: 2597
cur table: 2596
epoch: 1000
next table: 1995
cur table: 1973
epoch: 1000
next table: 2550
cur table: 2597
epoch: 1000
next table: 2049
cur table: 1995
epoch: 1000
next table: 2477
cur table: 2550
epoch: 1000
next table: 2026
cur table: 2049
epoch: 1000
next table: 2552
cur table: 2477
epoch: 1000
next table: 2004
cur table: 2026
epoch: 1000
next table: 2570
cur table: 2552
epoch: 1000
next table: 1997
cur table: 2004
epoch: 1000
next table: 2583
cur table: 2570
epoch: 1000
next table: 1982
cur table: 1997
epoch: 1000
next table: 2591
cur table: 2583
epoch: 1000
next table: 2562
cur table: 2591
epoch: 1000
next table: 2018
cur table: 1982
epoch: 1000
next table: 2546
cur table: 2562
epoch: 1000
next table: 2012
cur table: 2018
epoch: 1000
next table: 2587
cur table: 2546
epoch: 1000
next table: 1999
cur table: 2012
epoch: 1000
next table: 2592
cur table: 2587
epoch: 1000
next table: 1980
cur table: 1999
epoch: 1000
next table: 2643
cur table: 2592
epoch: 1000
next table: 1961
cur table: 1980
epoch: 1000
next table: 2631
cur table: 2643
epoch: 1000
next table: 1960
cur table: 1961
epoch: 1000
next table: 2651
cur table: 2631
epoch: 1000
next table: 1964
cur table: 1960
epoch: 1000
next table: 2618
cur table: 2651
epoch: 1000
next table: 1976
cur table: 1964
epoch: 1000
next table: 2628
cur table: 2618
epoch: 1000
next table: 1968
cur table: 1976
epoch: 1000
next table: 2623
cur table: 2628
epoch: 1000
next table: 1974
cur table: 1968
epoch: 1000
next table: 2602
cur table: 2623
epoch: 1000
next table: 1982
cur table: 1974
epoch: 1000
next table: 2619
cur table: 2602
epoch: 1000
next table: 1968
cur table: 1982
epoch: 1000
next table: 2623
cur table: 2619
epoch: 1000
next table: 1962
cur table: 1968
epoch: 1000
next table: 2652
cur table: 2623
epoch: 1000
next table: 1941
cur table: 1962
epoch: 1000
next table: 2614
cur table: 2652
epoch: 1000
next table: 1961
cur table: 1941
epoch: 1000
next table: 2631
cur table: 2614
epoch: 1000
next table: 1950
cur table: 1961
epoch: 1000
next table: 2627
cur table: 2631
epoch: 1000
next table: 1952
cur table: 1950
epoch: 1000
next table: 2593
cur table: 2627
epoch: 1000
next table: 1948
cur table: 1952
epoch: 1000
next table: 2636
cur table: 2593
epoch: 1000
next table: 1939
cur table: 1948
epoch: 1000
next table: 2633
cur table: 2636
epoch: 1000
next table: 1922
cur table: 1939
epoch: 1000
next table: 2642
cur table: 2633
epoch: 1000
next table: 1928
cur table: 1922
epoch: 1000
next table: 2577
cur table: 2642
epoch: 1000
next table: 1995
cur table: 1928
epoch: 1000
next table: 2517
cur table: 2577
epoch: 1000
next table: 1980
cur table: 1995
epoch: 1000
next table: 2552
cur table: 2517
epoch: 1000
next table: 1961
cur table: 1980
epoch: 1000
next table: 2574
cur table: 2552
epoch: 1000
next table: 2004
cur table: 1961
epoch: 1000
next table: 2478
cur table: 2574
epoch: 1000
next table: 2479
cur table: 2478
epoch: 1000
next table: 2010
cur table: 2004
epoch: 1000
next table: 2486
cur table: 2479
epoch: 1000
next table: 1983
cur table: 2010
epoch: 1000
next table: 2555
cur table: 2486
epoch: 1000
next table: 1987
cur table: 1983
epoch: 1000
next table: 2515
cur table: 2555
epoch: 1000
next table: 1944
cur table: 1987
epoch: 1000
next table: 2557
cur table: 2515
epoch: 1000
next table: 1982
cur table: 1944
epoch: 1000
next table: 2461
cur table: 2557
epoch: 1000
next table: 2115
cur table: 1982
epoch: 1000
next table: 2479
cur table: 2461
epoch: 1000
next table: 2123
cur table: 2115
epoch: 1000
next table: 2512
cur table: 2479
epoch: 1000
next table: 2069
cur table: 2123
epoch: 1000
next table: 2531
cur table: 2512
epoch: 1000
next table: 2040
cur table: 2069
epoch: 1000
next table: 2585
cur table: 2531
epoch: 1000
next table: 1929
cur table: 2040
epoch: 1000
next table: 2568
cur table: 2585
epoch: 1000
next table: 1998
cur table: 1929
epoch: 1000
next table: 2485
cur table: 2568
epoch: 1000
next table: 2515
cur table: 2485
epoch: 1000
next table: 1977
cur table: 1998
epoch: 1000
next table: 2542
cur table: 2515
epoch: 1000
next table: 1976
cur table: 1977
epoch: 1000
next table: 2537
cur table: 2542
epoch: 1000
next table: 1986
cur table: 1976
epoch: 1000
next table: 2510
cur table: 2537
epoch: 1000
next table: 2043
cur table: 1986
epoch: 1000
next table: 2433
cur table: 2510
epoch: 1000
next table: 2039
cur table: 2043
epoch: 1000
next table: 2450
cur table: 2433
epoch: 1000
next table: 2088
cur table: 2039
epoch: 1000
next table: 2490
cur table: 2450
epoch: 1000
next table: 2018
cur table: 2088
epoch: 1000
next table: 2514
cur table: 2490
epoch: 1000
next table: 1973
cur table: 2018
epoch: 1000
next table: 2598
cur table: 2514
epoch: 1000
next table: 1977
cur table: 1973
epoch: 1000
next table: 2577
cur table: 2598
epoch: 1000
next table: 1962
cur table: 1977
epoch: 1000
next table: 2620
cur table: 2577
epoch: 1000
next table: 1965
cur table: 1962
epoch: 1000
next table: 2603
cur table: 2620
epoch: 1000
next table: 1977
cur table: 1965
epoch: 1000
next table: 2601
cur table: 2603
epoch: 1000
next table: 2562
cur table: 2601
epoch: 1000
next table: 1995
cur table: 1977
epoch: 1000
next table: 2537
cur table: 2562
epoch: 1000
next table: 2022
cur table: 1995
epoch: 1000
next table: 2590
cur table: 2537
epoch: 1000
next table: 1991
cur table: 2022
epoch: 1000
next table: 2526
cur table: 2590
epoch: 1000
next table: 2033
cur table: 1991
epoch: 1000
next table: 2574
cur table: 2526
epoch: 1000
next table: 1991
cur table: 2033
epoch: 1000
next table: 2566
cur table: 2574
epoch: 1000
next table: 2021
cur table: 1991
epoch: 1000
next table: 2600
cur table: 2566
epoch: 1000
next table: 1989
cur table: 2021
epoch: 1000
next table: 2615
cur table: 2600
epoch: 1000
next table: 1966
cur table: 1989
epoch: 1000
next table: 2605
cur table: 2615
epoch: 1000
next table: 2014
cur table: 1966
epoch: 1000
next table: 2566
cur table: 2605
epoch: 1000
next table: 2025
cur table: 2014
epoch: 1000
next table: 2481
cur table: 2566
epoch: 1000
next table: 2113
cur table: 2025
epoch: 1000
next table: 2464
cur table: 2481
epoch: 1000
next table: 2034
cur table: 2113
epoch: 1000
next table: 2553
cur table: 2464
epoch: 1000
next table: 1998
cur table: 2034
epoch: 1000
next table: 2592
cur table: 2553
epoch: 1000
next table: 1998
cur table: 1998
epoch: 1000
next table: 2565
cur table: 2592
epoch: 1000
next table: 1994
cur table: 1998
epoch: 1000
next table: 2555
cur table: 2565
epoch: 1000
next table: 2550
cur table: 2555
epoch: 1000
next table: 2002
cur table: 1994
epoch: 1000
next table: 2552
cur table: 2550
epoch: 1000
next table: 2013
cur table: 2002
epoch: 1000
next table: 2531
cur table: 2552
epoch: 1000
next table: 2026
cur table: 2013
epoch: 1000
next table: 2556
cur table: 2531
epoch: 1000
next table: 1992
[...]
next table: 1939
cur table: 1950
epoch: 1000
next table: 2648
cur table: 2639
epoch: 1000
next table: 1952
cur table: 1939
epoch: 1000
next table: 2640
cur table: 2648
epoch: 1000
next table: 1945
cur table: 1952
epoch: 1000
next table: 2657
cur table: 2640
epoch: 1000
next table: 1932
cur table: 1945
epoch: 1000
next table: 2654
cur table: 2657
epoch: 1000
next table: 1931
cur table: 1932
epoch: 1000
next table: 2653
cur table: 2654
epoch: 1000
next table: 1938
cur table: 1931
epoch: 1000
next table: 2648
cur table: 2653
epoch: 1000
next table: 1922
cur table: 1938
epoch: 1000
next table: 2657
cur table: 2648
epoch: 1000
next table: 1937
cur table: 1922
epoch: 1000
next table: 2671
cur table: 2657
epoch: 1000
next table: 1933
cur table: 1937
epoch: 1000
next table: 2645
cur table: 2671
epoch: 1000
next table: 1946
cur table: 1933
epoch: 1000
next table: 2674
cur table: 2645
epoch: 1000
next table: 1933
cur table: 1946
epoch: 1000
next table: 2655
cur table: 2674
epoch: 1000
next table: 1928
cur table: 1933
epoch: 1000
next table: 2662
cur table: 2655
epoch: 1000
next table: 1918
cur table: 1928
epoch: 1000
next table: 2653
cur table: 2662
epoch: 1000
next table: 1932
cur table: 1918
epoch: 1000
next table: 2659
cur table: 2653
epoch: 1000
next table: 1916
cur table: 1932
epoch: 1000
next table: 2658
cur table: 2659
epoch: 1000
next table: 1935
cur table: 1916
epoch: 1000
next table: 2666
cur table: 2658
epoch: 1000
next table: 1927
cur table: 1935
epoch: 1000
next table: 2647
cur table: 2666
epoch: 1000
next table: 1945
cur table: 1927
epoch: 1000
next table: 2665
cur table: 2647
epoch: 1000
next table: 2001
cur table: 1945
epoch: 1000
next table: 2524
cur table: 2665
epoch: 1000
next table: 2033
cur table: 2001
epoch: 1000
next table: 2524
cur table: 2524
epoch: 1000
next table: 2009
cur table: 2033
epoch: 1000
next table: 2533
cur table: 2524
epoch: 1000
next table: 2483
cur table: 2533
epoch: 1000
next table: 2025
cur table: 2009
epoch: 1000
next table: 2513
cur table: 2483
epoch: 1000
next table: 2035
cur table: 2025
epoch: 1000
next table: 2518
cur table: 2513
epoch: 1000
next table: 2030
cur table: 2035
epoch: 1000
next table: 2532
cur table: 2518
epoch: 1000
next table: 2022
cur table: 2030
epoch: 1000
next table: 2580
cur table: 2532
Heartbeat CPU 0 instructions: 100000003 cycles: 89279709 heartbeat IPC: 0.734777 cumulative IPC: 0.667951 (Simulation time: 0 hr 26 min 52 sec) 
Finished CPU 0 instructions: 50000002 cycles: 74855778 cumulative IPC: 0.667951 (Simulation time: 0 hr 26 min 52 sec) 

ChampSim completed all CPUs

Region of Interest Statistics

CPU 0 cumulative IPC: 0.667951 instructions: 50000002 cycles: 74855778
ITLB TOTAL     ACCESS:    6581596  HIT:    6581596  MISS:          0  HIT %:        100  MISS %:          0   MPKI: 0
ITLB LOAD TRANSLATION ACCESS:    6581596  HIT:    6581596  MISS:          0  HIT %:        100  MISS %:          0   MPKI: 0
ITLB PREFETCH  REQUESTED:          0  ISSUED:          0  USEFUL:          0  USELESS:          0
ITLB USEFUL LOAD PREFETCHES:          0 PREFETCH ISSUED TO LOWER LEVEL:          0  ACCURACY: -nan
ITLB TIMELY PREFETCHES:          0 LATE PREFETCHES: 0 DROPPED PREFETCHES: 0
ITLB PREFETCHES SAME FILL-ORIGIN LEVEL: 0 DIFFERENT FILL-ORIGIN LEVEL: 0
ITLB AVERAGE MISS LATENCY: -nan cycles
ITLB RQ	ACCESS:    8572739	FORWARD:          0	MERGED:    1991144	TO_CACHE:    6581595

Revised Interactions: positive negative neutral
ITLB_interactions 0 0 0 -nan -nan -nan
DTLB TOTAL     ACCESS:    9043119  HIT:    8995347  MISS:      47772  HIT %:    99.4717  MISS %:   0.528269   MPKI: 0.95544
DTLB LOAD TRANSLATION ACCESS:    9043119  HIT:    8995347  MISS:      47772  HIT %:    99.4717  MISS %:   0.528269   MPKI: 0.95544
DTLB PREFETCH  REQUESTED:          0  ISSUED:          0  USEFUL:          0  USELESS:          0
DTLB USEFUL LOAD PREFETCHES:          0 PREFETCH ISSUED TO LOWER LEVEL:          0  ACCURACY: -nan
DTLB TIMELY PREFETCHES:          0 LATE PREFETCHES: 0 DROPPED PREFETCHES: 0
DTLB PREFETCHES SAME FILL-ORIGIN LEVEL: 0 DIFFERENT FILL-ORIGIN LEVEL: 0
DTLB AVERAGE MISS LATENCY: 114.563 cycles
DTLB RQ	ACCESS:   13499646	FORWARD:          0	MERGED:    4443355	TO_CACHE:    9056291

Revised Interactions: positive negative neutral
DTLB_interactions 0 0 0 -nan -nan -nan
STLB TOTAL     ACCESS:      47772  HIT:      21850  MISS:      25922  HIT %:    45.7381  MISS %:    54.2619   MPKI: 0.51844
STLB LOAD TRANSLATION ACCESS:      47772  HIT:      21850  MISS:      25922  HIT %:    45.7381  MISS %:    54.2619   MPKI: 0.51844
STLB PREFETCH  REQUESTED:          0  ISSUED:          0  USEFUL:          0  USELESS:          0
STLB USEFUL LOAD PREFETCHES:          0 PREFETCH ISSUED TO LOWER LEVEL:          0  ACCURACY: -nan
STLB TIMELY PREFETCHES:          0 LATE PREFETCHES: 0 DROPPED PREFETCHES: 0
STLB PREFETCHES SAME FILL-ORIGIN LEVEL: 0 DIFFERENT FILL-ORIGIN LEVEL: 0
STLB AVERAGE MISS LATENCY: 191.8 cycles
STLB RQ	ACCESS:      47772	FORWARD:          0	MERGED:          0	TO_CACHE:      47772

Revised Interactions: positive negative neutral
STLB_interactions 0 0 0 -nan -nan -nan
STLB Hit, L1D data hit: 0
STLB Hit, L2C data hit: 0
STLB Hit, LLC data hit: 0
STLB Hit, LLC data miss: 0
STLB STLB hints to L2: 0
L1D TOTAL     ACCESS:   13316869  HIT:   10580384  MISS:    2736485  HIT %:     79.451  MISS %:     20.549   MPKI: 54.7297
L1D LOAD      ACCESS:    5162862  HIT:    4748230  MISS:     414632  HIT %:     91.969  MISS %:    8.03105   MPKI: 8.29264
L1D RFO       ACCESS:    8154007  HIT:    5832154  MISS:    2321853  HIT %:     71.525  MISS %:     28.475   MPKI: 46.4371
L1D PREFETCH  REQUESTED:          0  ISSUED:          0  USEFUL:          0  USELESS:          0
L1D USEFUL LOAD PREFETCHES:          0 PREFETCH ISSUED TO LOWER LEVEL:          0  ACCURACY: -nan
L1D TIMELY PREFETCHES:          0 LATE PREFETCHES: 0 DROPPED PREFETCHES: 0
L1D PREFETCHES SAME FILL-ORIGIN LEVEL: 0 DIFFERENT FILL-ORIGIN LEVEL: 0
L1D AVERAGE MISS LATENCY: 316.177 cycles
L1D RQ	ACCESS:   11414411	FORWARD:          0	MERGED:    5728839	TO_CACHE:    5321264
L1D WQ	ACCESS:    8231582	FORWARD:     364308	MERGED:      53200	TO_CACHE:    8178382

Revised Interactions: positive negative neutral
L1D_interactions 0 0 0 -nan -nan -nan
L1D UNIQUE REGIONS ACCESSED: 0
L1D REGIONS CONFLICTS: 0
L1D Cross Page Prefetch Requests: 0
L1D Same Page Prefetch Requests: 0
L1D ROI Sum of L1D PQ occupancy: 0
L1D PREFETCHES PUSHED FROM L2C: 0
L1I TOTAL     ACCESS:    8572738  HIT:    8572738  MISS:          0  HIT %:        100  MISS %:          0   MPKI: 0
L1I LOAD      ACCESS:    8572738  HIT:    8572738  MISS:          0  HIT %:        100  MISS %:          0   MPKI: 0
L1I PREFETCH  REQUESTED:          0  ISSUED:          0  USEFUL:          0  USELESS:          0
L1I USEFUL LOAD PREFETCHES:          0 PREFETCH ISSUED TO LOWER LEVEL:          0  ACCURACY: -nan
L1I TIMELY PREFETCHES:          0 LATE PREFETCHES: 0 DROPPED PREFETCHES: 0
L1I PREFETCHES SAME FILL-ORIGIN LEVEL: 0 DIFFERENT FILL-ORIGIN LEVEL: 0
L1I AVERAGE MISS LATENCY: -nan cycles
L1I RQ	ACCESS:   12162207	FORWARD:          0	MERGED:    3589468	TO_CACHE:    8572739

Revised Interactions: positive negative neutral
L1I_interactions 0 0 0 -nan -nan -nan
BTB TOTAL     ACCESS:     696759  HIT:     696753  MISS:          6  HIT %:    99.9991  MISS %: 0.00086113   MPKI: 0.00012
BTB BRANCH_DIRECT_JUMP	ACCESS:      66227  HIT:      66226  MISS:          1
BTB BRANCH_INDIRECT	ACCESS:          0  HIT:          0  MISS:          0
BTB BRANCH_CONDITIONAL	ACCESS:     630532  HIT:     630527  MISS:          5
BTB BRANCH_DIRECT_CALL	ACCESS:          0  HIT:          0  MISS:          0
BTB BRANCH_INDIRECT_CALL	ACCESS:          0  HIT:          0  MISS:          0
BTB BRANCH_RETURN	ACCESS:          0  HIT:          0  MISS:          0
BTB BRANCH_OTHER ACCESS:          0  HIT:          0  MISS:          0

L2C TOTAL     ACCESS:    5155424  HIT:    2661813  MISS:    2493611  HIT %:    51.6313  MISS %:    48.3687   MPKI: 49.8722
L2C LOAD      ACCESS:     414632  HIT:      70484  MISS:     344148  HIT %:    16.9992  MISS %:    83.0008   MPKI: 6.88296
L2C DATA LOAD MPKI: 6.88296
L2C INSTRUCTION LOAD MPKI: 0
L2C RFO       ACCESS:    2321853  HIT:    1028298  MISS:    1293555  HIT %:    44.2878  MISS %:    55.7122   MPKI: 25.8711
L2C PREFETCH  ACCESS:      71162  HIT:        620  MISS:      70542  HIT %:   0.871252  MISS %:    99.1287   MPKI: 1.41084
L2C DATA PREFETCH MPKI: 1.41084
L2C INSTRUCTION PREFETCH MPKI: 0
L2C WRITEBACK ACCESS:    2321853  HIT:    1541408  MISS:     780445  HIT %:     66.387  MISS %:     33.613   MPKI: 15.6089
L2C LOAD TRANSLATION ACCESS:      25924  HIT:      21003  MISS:       4921  HIT %:    81.0176  MISS %:    18.9824   MPKI: 0.09842
L2C PREFETCH  REQUESTED:    2779392  ISSUED:    2779392  USEFUL:      70484  USELESS:         58
L2C USEFUL LOAD PREFETCHES:      70484 PREFETCH ISSUED TO LOWER LEVEL:    1578057  ACCURACY: 4.46651
L2C TIMELY PREFETCHES:      70484 LATE PREFETCHES: 50545 DROPPED PREFETCHES: 0
L2C PREFETCHES SAME FILL-ORIGIN LEVEL: 121087 DIFFERENT FILL-ORIGIN LEVEL: 1456970
L2C AVERAGE MISS LATENCY: 332.642 cycles
L2C RQ	ACCESS:    2762416	FORWARD:          0	MERGED:          0	TO_CACHE:    2762416
L2C WQ	ACCESS:    2321853	FORWARD:          0	MERGED:          0	TO_CACHE:    2321853
L2C PQ	ACCESS:    2779392	FORWARD:          0	MERGED:    1047921	TO_CACHE:    1731471

Revised Interactions: positive negative neutral
L2C_interactions 68752 80 1726 97.4404 0.113382 2.44621
L2C Instructions Evicting Data 0
L2C Translations Evicting Data 4921
L2C Data Evicting Data 1705059
L2C Instructions Evicting Instructions 0
L2C Translations Evicting Instructions 0
L2C Data Evicting Instructions 0
L2C Instructions Evicting Translations 0
L2C Translations Evicting Translations 0
L2C Data Evicting Translations 3186
L2C Dense regions hint from L2: 0
PSCL5 TOTAL     ACCESS:      25922  HIT:      25922  MISS:          0  HIT %:        100  MISS %:          0   MPKI: 0
PSCL5 LOAD TRANSLATION ACCESS:      25922  HIT:      25922  MISS:          0  HIT %:        100  MISS %:          0   MPKI: 0
PSCL5 PREFETCH  REQUESTED:          0  ISSUED:          0  USEFUL:          0  USELESS:          0
PSCL5 USEFUL LOAD PREFETCHES:          0 PREFETCH ISSUED TO LOWER LEVEL:          0  ACCURACY: -nan
PSCL5 TIMELY PREFETCHES:          0 LATE PREFETCHES: 0 DROPPED PREFETCHES: 0
PSCL5 PREFETCHES SAME FILL-ORIGIN LEVEL: 0 DIFFERENT FILL-ORIGIN LEVEL: 0

Revised Interactions: positive negative neutral
PSCL5_interactions 0 0 0 -nan -nan -nan
PSCL4 TOTAL     ACCESS:      25922  HIT:      25922  MISS:          0  HIT %:        100  MISS %:          0   MPKI: 0
PSCL4 LOAD TRANSLATION ACCESS:      25922  HIT:      25922  MISS:          0  HIT %:        100  MISS %:          0   MPKI: 0
PSCL4 PREFETCH  REQUESTED:          0  ISSUED:          0  USEFUL:          0  USELESS:          0
PSCL4 USEFUL LOAD PREFETCHES:          0 PREFETCH ISSUED TO LOWER LEVEL:          0  ACCURACY: -nan
PSCL4 TIMELY PREFETCHES:          0 LATE PREFETCHES: 0 DROPPED PREFETCHES: 0
PSCL4 PREFETCHES SAME FILL-ORIGIN LEVEL: 0 DIFFERENT FILL-ORIGIN LEVEL: 0

Revised Interactions: positive negative neutral
PSCL4_interactions 0 0 0 -nan -nan -nan
PSCL3 TOTAL     ACCESS:      25922  HIT:      25922  MISS:          0  HIT %:        100  MISS %:          0   MPKI: 0
PSCL3 LOAD TRANSLATION ACCESS:      25922  HIT:      25922  MISS:          0  HIT %:        100  MISS %:          0   MPKI: 0
PSCL3 PREFETCH  REQUESTED:          0  ISSUED:          0  USEFUL:          0  USELESS:          0
PSCL3 USEFUL LOAD PREFETCHES:          0 PREFETCH ISSUED TO LOWER LEVEL:          0  ACCURACY: -nan
PSCL3 TIMELY PREFETCHES:          0 LATE PREFETCHES: 0 DROPPED PREFETCHES: 0
PSCL3 PREFETCHES SAME FILL-ORIGIN LEVEL: 0 DIFFERENT FILL-ORIGIN LEVEL: 0

Revised Interactions: positive negative neutral
PSCL3_interactions 0 0 0 -nan -nan -nan
PSCL2 TOTAL     ACCESS:      25922  HIT:      25895  MISS:         27  HIT %:    99.8958  MISS %:   0.104159   MPKI: 0.00054
PSCL2 LOAD TRANSLATION ACCESS:      25922  HIT:      25895  MISS:         27  HIT %:    99.8958  MISS %:   0.104159   MPKI: 0.00054
PSCL2 PREFETCH  REQUESTED:          0  ISSUED:          0  USEFUL:          0  USELESS:          0
PSCL2 USEFUL LOAD PREFETCHES:          0 PREFETCH ISSUED TO LOWER LEVEL:          0  ACCURACY: -nan
PSCL2 TIMELY PREFETCHES:          0 LATE PREFETCHES: 0 DROPPED PREFETCHES: 0
PSCL2 PREFETCHES SAME FILL-ORIGIN LEVEL: 0 DIFFERENT FILL-ORIGIN LEVEL: 0

Revised Interactions: positive negative neutral
PSCL2_interactions 0 0 0 -nan -nan -nan
LLC TOTAL     ACCESS:    3836592  HIT:    2090032  MISS:    1746560  HIT %:    54.4763  MISS %:    45.5237   MPKI: 34.9312
LLC LOAD      ACCESS:     293603  HIT:     241231  MISS:      52372  HIT %:    82.1623  MISS %:    17.8377   MPKI: 1.04744
LLC RFO       ACCESS:    1293519  HIT:      49687  MISS:    1243832  HIT %:    3.84123  MISS %:    96.1588   MPKI: 24.8766
LLC PREFETCH  ACCESS:     952475  HIT:     590197  MISS:     362278  HIT %:    61.9646  MISS %:    38.0354   MPKI: 7.24556
LLC WRITEBACK ACCESS:    1292074  HIT:    1207280  MISS:      84794  HIT %:    93.4374  MISS %:    6.56263   MPKI: 1.69588
LLC LOAD TRANSLATION ACCESS:       4921  HIT:       1637  MISS:       3284  HIT %:    33.2656  MISS %:    66.7344   MPKI: 0.06568
LLC PREFETCH  REQUESTED:          0  ISSUED:          0  USEFUL:     241229  USELESS:     121476
LLC USEFUL LOAD PREFETCHES:     241229 PREFETCH ISSUED TO LOWER LEVEL:     400381  ACCURACY: 60.2499
LLC TIMELY PREFETCHES:     241229 LATE PREFETCHES: 38100 DROPPED PREFETCHES: 0
LLC PREFETCHES SAME FILL-ORIGIN LEVEL: 396498 DIFFERENT FILL-ORIGIN LEVEL: 0
LLC AVERAGE MISS LATENCY: 548.137 cycles
LLC RQ	ACCESS:    1592086	FORWARD:          0	MERGED:          0	TO_CACHE:    1592050
LLC WQ	ACCESS:    1292074	FORWARD:         36	MERGED:          0	TO_CACHE:    1292074
LLC PQ	ACCESS:    1578057	FORWARD:          0	MERGED:     204957	TO_CACHE:    1373100

Revised Interactions: positive negative neutral
LLC_interactions 240997 120941 89052 53.4373 26.8168 19.7459
LLC Dense regions hint to LLC: 0

RAW hits: 868107
Loads Generated: 12282518
Loads sent to L1D: 11414411
Stores Generated: 8231563
Stores sent to L1D: 8231582
Major fault: 0 Minor fault: 32663
Allocated PAGES: 32663
 All Calls: 942218
 Critical Calls: 942218
------------------
Depth Distribution
------------------
depth 0: 0
depth 1: 944887
depth 2: 923357
depth 3: 897268
depth 4: 871225
depth 5: 842825
depth 6: 763103
depth 7: 656561
depth 8: 511230
depth 9: 281215
depth 10: 71827
depth 11: 12244
depth 12: 1867
depth 13: 208
depth 14: 6
depth 15: 0
depth 16: 0
depth 17: 0
depth 18: 0
depth 19: 0
depth 20: 0
depth 21: 0
depth 22: 0
depth 23: 0
depth 24: 0
depth 25: 0
depth 26: 0
depth 27: 0
depth 28: 0
depth 29: 0
Total: 6777823
-----------------------------
-----------------------------
	Captured at Filter
-----------------------------
depth 0: 0
depth 1: 3920
depth 2: 1826
depth 3: 1336
depth 4: 1308
depth 5: 1272
depth 6: 1146
depth 7: 1025
depth 8: 854
depth 9: 491
depth 10: 115
depth 11: 11
depth 12: 0
depth 13: 0
depth 14: 0
depth 15: 0
depth 16: 0
depth 17: 0
depth 18: 0
depth 19: 0
depth 20: 0
depth 21: 0
depth 22: 0
depth 23: 0
depth 24: 0
depth 25: 0
depth 26: 0
depth 27: 0
depth 28: 0
depth 29: 0
-----------------------------
-----------------------------
		Lost at Page
-----------------------------
depth 0: 0
depth 1: 30079
depth 2: 28190
depth 3: 38713
depth 4: 51695
depth 5: 65024
depth 6: 73866
depth 7: 78114
depth 8: 77472
depth 9: 57000
depth 10: 18631
depth 11: 3667
depth 12: 580
depth 13: 74
depth 14: 1
depth 15: 0
depth 16: 0
depth 17: 0
depth 18: 0
depth 19: 0
depth 20: 0
depth 21: 0
depth 22: 0
depth 23: 0
depth 24: 0
depth 25: 0
depth 26: 0
depth 27: 0
depth 28: 0
depth 29: 0
-----------------------------
-----------------------------
	Lost due to PQ Size
-----------------------------
125717
-----------------------------
ST read accesses: 408147
ST write accesses: 6485
PT read accesses: 16573076
PT write accesses: 611527
FILTER read accesses: 5692694
FILTER write accesses: 2928756
GHR read accesses: 958909
GHR write accesses: 200350
GHR counter read accesses: 13980392
GHR counter write accesses: 848658
ST tag read accesses: 162672699
ST tag write accesses: 2069933

DRAM Statistics
 CHANNEL 0
 RQ ROW_BUFFER_HIT:     100589  ROW_BUFFER_MISS:    1561177
 DBUS_CONGESTED:          0
 WQ ROW_BUFFER_HIT:     157937  ROW_BUFFER_MISS:    1085256  FULL:         61

 AVG_CONGESTED_CYCLE: -
 All warmup complete: 2
Channel 0 Bank busy for read cycles: 0
Channel 0 Bank busy for write cycles: 0
Channel 0
Rank 0
0banks busy for read cycles: 8039
0banks busy for write cycles: 0
1banks busy for read cycles: 713421
1banks busy for write cycles: 122024
2banks busy for read cycles: 1032259
2banks busy for write cycles: 122024
3banks busy for read cycles: 2213822
3banks busy for write cycles: 122022
4banks busy for read cycles: 3433714
4banks busy for write cycles: 122018
5banks busy for read cycles: 5977290
5banks busy for write cycles: 122025
6banks busy for read cycles: 8890862
6banks busy for write cycles: 128638
7banks busy for read cycles: 10403273
7banks busy for write cycles: 1580791
8banks busy for read cycles: 11421444
8banks busy for write cycles: 28442113

CPU 0 Branch Prediction Accuracy: 96.9529% MPKI: 0.42462 Average ROB Occupancy at Mispredict: 152.644
Branch types
NOT_BRANCH: 49302902 98.6058%
BRANCH_DIRECT_JUMP: 66227 0.132454%
BRANCH_INDIRECT: 0 0%
BRANCH_CONDITIONAL: 630542 1.26108%
BRANCH_DIRECT_CALL: 0 0%
BRANCH_INDIRECT_CALL: 0 0%
BRANCH_RETURN: 0 0%
BRANCH_OTHER: 0 0%

@sumon_overall_L1D         0         0         0         0         0         0         0
@Sumon_Early_by_class_L1D         0         0         0         0
@Sumon_Late_by_class_L1D         0         0         0         0

@Sumon_Early_by_cycle_L1D         0         0         0         0         0         0         0         0         0         0         0         0
@Sumon_Late_by_cycle_L1D         0         0         0         0         0         0
@Sumon_Early_stream_L1D         0         0         0         0         0         0         0         0         0         0         0         0
@Sumon_Early_CS_L1D         0         0         0         0         0         0         0         0         0         0         0         0
@Sumon_Early_CPLX_L1D         0         0         0         0         0         0         0         0         0         0         0         0
@Sumon_Late_stream_L1D         0         0         0         0         0         0
@Sumon_Late_CS_L1D         0         0         0         0         0         0
@Sumon_Late_CPLX_L1D         0         0         0         0         0         0
@sumon_overall_L2C     70484     50545         0        58     70542   2779392   2779392
@Sumon_Early_by_class_L2C         0         0         0         0
@Sumon_Late_by_class_L2C         0         0         0         0

@Sumon_Early_by_cycle_L2C     19179     10029     34240      5613       731       692         0         0         0         0         0         0
@Sumon_Late_by_cycle_L2C      4384     23995     10109       928      5992      5137
@Sumon_Early_stream_L2C         0         0         0         0         0         0         0         0         0         0         0         0
@Sumon_Early_CS_L2C         0         0         0         0         0         0         0         0         0         0         0         0
@Sumon_Early_CPLX_L2C         0         0         0         0         0         0         0         0         0         0         0         0
@Sumon_Late_stream_L2C         0         0         0         0         0         0
@Sumon_Late_CS_L2C         0         0         0         0         0         0
@Sumon_Late_CPLX_L2C         0         0         0         0         0         0
DRAM PAGES: 1048576
Allocated PAGES: 32663
