Initialize SIGNATURE TABLE
ST_SET: 1
ST_WAY: 256
ST_TAG_BIT: 16
ST_TAG_MASK: ffff

Initialize PATTERN TABLE
PT_SET: 512
PT_WAY: 4
SIG_DELTA_BIT: 7
C_SIG_BIT: 4
C_DELTA_BIT: 4

Initialize PREFETCH FILTER
FILTER_SET: 1024

*** ChampSim Multicore Out-of-Order Simulator ***

Warmup Instructions: 50000000
Simulation Instructions: 50000000
Number of CPUs: 1
LLC sets: 2048
LLC ways: 16
Off-chip DRAM Size: 4096 MB Channels: 1 Width: 64-bit Data Rate: 6400 MT/s
CPU 0 runs ../../biswa/SPEC2017Traces/620.omnetpp_s-874B.champsimtrace.xz
.xz
CPU 0 Bimodal branch predictor
BTB has LRU replacement policy
ITLB has LRU replacement policy
DTLB has LRU replacement policy
STLB has LRU replacement policy
L1I has LRU replacement policy
L1D has LRU replacement policy
ST_WAYS: 256
PT_SETS: 512
Initialize DRRIP state for L2C
Initialize DRRIP state for LLC
epoch: 1000
next table: 3550
cur table: 11294
epoch: 1000
next table: 3389
cur table: 3550
epoch: 1000
next table: 2788
cur table: 3389
epoch: 1000
next table: 2717
cur table: 2788
epoch: 1000
next table: 2770
cur table: 2717
epoch: 1000
next table: 2621
cur table: 2770
epoch: 1000
next table: 2796
cur table: 2621
epoch: 1000
next table: 2773
cur table: 2796
epoch: 1000
next table: 2643
cur table: 2773
epoch: 1000
next table: 2717
cur table: 2643
epoch: 1000
next table: 2801
cur table: 2717
epoch: 1000
next table: 2632
cur table: 2801
epoch: 1000
next table: 2626
cur table: 2632
epoch: 1000
next table: 2687
cur table: 2626
epoch: 1000
next table: 2530
cur table: 2687
epoch: 1000
next table: 2563
cur table: 2530
epoch: 1000
next table: 2519
cur table: 2563
epoch: 1000
next table: 2625
cur table: 2519
epoch: 1000
next table: 2592
cur table: 2625
epoch: 1000
next table: 4882
cur table: 26049
epoch: 1000
next table: 2614
cur table: 2592
epoch: 1000
next table: 2582
cur table: 2614
epoch: 1000
next table: 2618
cur table: 2582
epoch: 1000
next table: 4176
cur table: 4882
epoch: 1000
next table: 2749
cur table: 2618
epoch: 1000
next table: 2514
cur table: 2749
epoch: 1000
next table: 2736
cur table: 2514
epoch: 1000
next table: 3231
cur table: 4176
epoch: 1000
next table: 2875
cur table: 2736
epoch: 1000
next table: 2513
cur table: 2875
epoch: 1000
next table: 3012
cur table: 3231
epoch: 1000
next table: 2588
cur table: 2513
epoch: 1000
next table: 2577
cur table: 3012
epoch: 1000
next table: 2710
cur table: 2588
epoch: 1000
next table: 2763
cur table: 2710
epoch: 1000
next table: 2819
cur table: 2577
epoch: 1000
next table: 2877
cur table: 2763
epoch: 1000
next table: 2622
cur table: 2877
epoch: 1000
next table: 2514
cur table: 2819
epoch: 1000
next table: 2685
cur table: 2622
epoch: 1000
next table: 2280
cur table: 2514
epoch: 1000
next table: 2514
cur table: 2685
epoch: 1000
next table: 2232
cur table: 2280
epoch: 1000
next table: 2514
cur table: 2514
epoch: 1000
next table: 2285
cur table: 2232
epoch: 1000
next table: 3034
cur table: 2514
epoch: 1000
next table: 2625
cur table: 3034
epoch: 1000
next table: 2095
cur table: 2285
epoch: 1000
next table: 3035
cur table: 2625
epoch: 1000
next table: 2327
cur table: 2095
epoch: 1000
next table: 2539
cur table: 3035
epoch: 1000
next table: 2137
cur table: 2327
epoch: 1000
next table: 2567
cur table: 2539
epoch: 1000
next table: 2123
cur table: 2137
epoch: 1000
next table: 2690
cur table: 2567
epoch: 1000
next table: 2011
cur table: 2123
epoch: 1000
next table: 2551
cur table: 2690
epoch: 1000
next table: 2318
cur table: 2011
epoch: 1000
next table: 2750
cur table: 2551
epoch: 1000
next table: 2627
cur table: 2750
epoch: 1000
next table: 2109
cur table: 2318
epoch: 1000
next table: 2696
cur table: 2627
epoch: 1000
next table: 2130
cur table: 2109
epoch: 1000
next table: 2798
cur table: 2696
epoch: 1000
next table: 2047
cur table: 2130
epoch: 1000
next table: 2510
cur table: 2798
epoch: 1000
next table: 2178
cur table: 2047
epoch: 1000
next table: 2655
cur table: 2510
epoch: 1000
next table: 2078
cur table: 2178
epoch: 1000
next table: 2568
cur table: 2655
epoch: 1000
next table: 2098
cur table: 2078
epoch: 1000
next table: 2505
cur table: 2568
epoch: 1000
next table: 2089
cur table: 2098
epoch: 1000
next table: 2469
cur table: 2505
epoch: 1000
next table: 2217
cur table: 2089
epoch: 1000
next table: 2981
cur table: 2469
epoch: 1000
next table: 2692
cur table: 2981
epoch: 1000
next table: 2396
cur table: 2217
epoch: 1000
next table: 2594
cur table: 2692
epoch: 1000
next table: 2344
cur table: 2396
epoch: 1000
next table: 2833
cur table: 2594
epoch: 1000
next table: 2225
cur table: 2344
epoch: 1000
next table: 3011
cur table: 2833
epoch: 1000
next table: 2660
cur table: 3011
epoch: 1000
next table: 2335
cur table: 2225
epoch: 1000
next table: 2598
cur table: 2660
epoch: 1000
next table: 2143
cur table: 2335
epoch: 1000
next table: 2592
cur table: 2598
epoch: 1000
next table: 2094
cur table: 2143
epoch: 1000
next table: 2594
cur table: 2592
epoch: 1000
next table: 1982
cur table: 2094
epoch: 1000
next table: 2603
cur table: 2594
epoch: 1000
next table: 2114
cur table: 1982
epoch: 1000
next table: 2847
cur table: 2603
epoch: 1000
next table: 2177
cur table: 2114
epoch: 1000
next table: 2673
cur table: 2847
epoch: 1000
next table: 2042
cur table: 2177
epoch: 1000
next table: 2519
cur table: 2673
epoch: 1000
next table: 2577
cur table: 2519
epoch: 1000
next table: 2300
cur table: 2042
epoch: 1000
next table: 2600
cur table: 2577
epoch: 1000
next table: 2515
cur table: 2300
epoch: 1000
next table: 2994
cur table: 2600
epoch: 1000
next table: 2341
cur table: 2515
epoch: 1000
next table: 2768
cur table: 2994
epoch: 1000
next table: 2783
cur table: 2768
epoch: 1000
next table: 2294
cur table: 2341
epoch: 1000
next table: 2586
cur table: 2783
epoch: 1000
next table: 2105
cur table: 2294
epoch: 1000
next table: 2692
cur table: 2586
epoch: 1000
next table: 2069
cur table: 2105
epoch: 1000
next table: 2554
cur table: 2692
epoch: 1000
next table: 2002
cur table: 2069
epoch: 1000
next table: 2498
cur table: 2554
epoch: 1000
next table: 2017
cur table: 2002
epoch: 1000
next table: 2567
cur table: 2498
epoch: 1000
next table: 2079
cur table: 2017
epoch: 1000
next table: 2733
cur table: 2567
epoch: 1000
next table: 2291
cur table: 2079
epoch: 1000
next table: 2832
cur table: 2733
epoch: 1000
next table: 3015
cur table: 2832
epoch: 1000
next table: 2297
cur table: 2291
epoch: 1000
next table: 2975
cur table: 3015
epoch: 1000
next table: 2140
cur table: 2297
epoch: 1000
next table: 2543
cur table: 2975
epoch: 1000
next table: 2102
cur table: 2140
epoch: 1000
next table: 2650
cur table: 2543
epoch: 1000
next table: 2078
cur table: 2102
epoch: 1000
next table: 2612
cur table: 2650
epoch: 1000
next table: 2343
cur table: 2078
epoch: 1000
next table: 2883
cur table: 2612
epoch: 1000
next table: 2091
cur table: 2343
epoch: 1000
next table: 2722
cur table: 2883
epoch: 1000
next table: 2056
cur table: 2091
epoch: 1000
next table: 2698
cur table: 2722
epoch: 1000
next table: 2044
cur table: 2056
epoch: 1000
next table: 2628
cur table: 2698
epoch: 1000
next table: 2036
cur table: 2044
epoch: 1000
next table: 2497
cur table: 2628
epoch: 1000
next table: 2018
cur table: 2036
epoch: 1000
next table: 2519
cur table: 2497
epoch: 1000
next table: 2602
cur table: 2519
epoch: 1000
next table: 2033
cur table: 2018
epoch: 1000
next table: 2824
cur table: 2602
epoch: 1000
next table: 2121
cur table: 2033
epoch: 1000
next table: 2561
cur table: 2824
epoch: 1000
next table: 2135
cur table: 2121
epoch: 1000
next table: 2731
cur table: 2561
epoch: 1000
next table: 2378
cur table: 2135
epoch: 1000
next table: 2627
cur table: 2731
epoch: 1000
next table: 2308
cur table: 2378
epoch: 1000
next table: 2907
cur table: 2627
epoch: 1000
next table: 2816
cur table: 2907
epoch: 1000
next table: 2264
cur table: 2308
epoch: 1000
next table: 2464
cur table: 2816
epoch: 1000
next table: 2022
cur table: 2264
epoch: 1000
next table: 2578
cur table: 2464
epoch: 1000
next table: 2041
cur table: 2022
epoch: 1000
next table: 2560
cur table: 2578
epoch: 1000
next table: 2326
cur table: 2041
epoch: 1000
next table: 2764
cur table: 2560
epoch: 1000
next table: 2291
cur table: 2326
epoch: 1000
next table: 2668
cur table: 2764
epoch: 1000
next table: 2464
cur table: 2668
epoch: 1000
next table: 2203
cur table: 2291
epoch: 1000
next table: 2725
cur table: 2464
epoch: 1000
next table: 2275
cur table: 2203
epoch: 1000
next table: 2603
cur table: 2725
epoch: 1000
next table: 2194
cur table: 2275
epoch: 1000
next table: 2579
cur table: 2603
epoch: 1000
next table: 2040
cur table: 2194
epoch: 1000
next table: 2593
cur table: 2579
epoch: 1000
next table: 2263
cur table: 2040
epoch: 1000
next table: 2608
cur table: 2593
epoch: 1000
next table: 2114
cur table: 2263
epoch: 1000
next table: 2573
cur table: 2608
epoch: 1000
next table: 2595
cur table: 2573
epoch: 1000
next table: 2152
cur table: 2114
epoch: 1000
next table: 2460
cur table: 2595
epoch: 1000
next table: 2401
cur table: 2152
epoch: 1000
next table: 2920
cur table: 2460
epoch: 1000
next table: 2192
cur table: 2401
epoch: 1000
next table: 2571
cur table: 2920
epoch: 1000
next table: 2035
cur table: 2192
epoch: 1000
next table: 2557
cur table: 2571
epoch: 1000
next table: 3085
cur table: 2557
epoch: 1000
next table: 2265
cur table: 2035
epoch: 1000
next table: 2498
cur table: 3085
epoch: 1000
next table: 2023
cur table: 2265
epoch: 1000
next table: 2930
cur table: 2498
epoch: 1000
next table: 2025
cur table: 2023
epoch: 1000
next table: 2912
cur table: 2930
epoch: 1000
next table: 2195
cur table: 2025
epoch: 1000
next table: 2559
cur table: 2912
epoch: 1000
next table: 2063
cur table: 2195
epoch: 1000
next table: 2731
cur table: 2559
epoch: 1000
next table: 2117
cur table: 2063
epoch: 1000
next table: 2923
cur table: 2731
epoch: 1000
next table: 2011
cur table: 2117
epoch: 1000
next table: 2475
cur table: 2923
epoch: 1000
next table: 2075
cur table: 2011
epoch: 1000
next table: 2616
cur table: 2475
epoch: 1000
next table: 2052
cur table: 2075
epoch: 1000
next table: 2544
cur table: 2616
epoch: 1000
next table: 2271
cur table: 2052
epoch: 1000
next table: 2819
cur table: 2544
epoch: 1000
next table: 2799
cur table: 2819
epoch: 1000
next table: 2241
cur table: 2271
epoch: 1000
next table: 2491
cur table: 2799
epoch: 1000
next table: 2039
cur table: 2241
epoch: 1000
next table: 2678
cur table: 2491
epoch: 1000
next table: 2097
cur table: 2039
epoch: 1000
next table: 2640
cur table: 2678
epoch: 1000
next table: 2076
cur table: 2097
epoch: 1000
next table: 2525
cur table: 2640
epoch: 1000
next table: 2022
cur table: 2076
epoch: 1000
next table: 2661
cur table: 2525
epoch: 1000
next table: 2232
cur table: 2022
epoch: 1000
next table: 2605
cur table: 2661
epoch: 1000
next table: 2096
cur table: 2232
epoch: 1000
next table: 2709
cur table: 2605
epoch: 1000
next table: 2986
cur table: 2709
epoch: 1000
next table: 2475
cur table: 2096
epoch: 1000
next table: 2661
cur table: 2986
epoch: 1000
next table: 1977
cur table: 2475
epoch: 1000
next table: 2568
cur table: 2661
epoch: 1000
next table: 2030
cur table: 1977
epoch: 1000
next table: 2612
cur table: 2568
epoch: 1000
next table: 2030
cur table: 2030
epoch: 1000
next table: 2628
cur table: 2612
epoch: 1000
next table: 2138
cur table: 2030
epoch: 1000
next table: 2639
cur table: 2628
epoch: 1000
next table: 2095
cur table: 2138
epoch: 1000
next table: 2634
cur table: 2639
epoch: 1000
next table: 2033
cur table: 2095
epoch: 1000
next table: 2547
cur table: 2634
epoch: 1000
next table: 2061
cur table: 2033
epoch: 1000
next table: 2700
cur table: 2547
Heartbeat CPU 0 instructions: 10000001 cycles: 3903781 heartbeat IPC: 2.56162 cumulative IPC: 2.56162 (Simulation time: 0 hr 2 min 58 sec) 
epoch: 1000
next table: 2106
cur table: 2061
epoch: 1000
next table: 2640
cur table: 2700
epoch: 1000
next table: 2067
cur table: 2106
epoch: 1000
next table: 2507
cur table: 2640
epoch: 1000
next table: 2879
cur table: 2507
epoch: 1000
next table: 2553
cur table: 2067
epoch: 1000
next table: 2837
cur table: 2879
epoch: 1000
next table: 2582
cur table: 2553
epoch: 1000
next table: 2845
cur table: 2837
epoch: 1000
next table: 2880
cur table: 2845
epoch: 1000
next table: 2293
cur table: 2582
epoch: 1000
next table: 2556
cur table: 2880
epoch: 1000
next table: 2115
cur table: 2293
epoch: 1000
next table: 2612
cur table: 2556
epoch: 1000
next table: 2054
cur table: 2115
epoch: 1000
next table: 2544
cur table: 2612
epoch: 1000
next table: 2057
cur table: 2054
epoch: 1000
next table: 2599
cur table: 2544
epoch: 1000
next table: 2035
cur table: 2057
epoch: 1000
next table: 2655
cur table: 2599
epoch: 1000
next table: 2160
cur table: 2035
epoch: 1000
next table: 2522
cur table: 2655
epoch: 1000
next table: 2038
cur table: 2160
epoch: 1000
next table: 2632
cur table: 2522
epoch: 1000
next table: 2937
cur table: 2632
epoch: 1000
next table: 2444
cur table: 2038
epoch: 1000
next table: 2539
cur table: 2937
epoch: 1000
next table: 2093
cur table: 2444
epoch: 1000
next table: 2723
cur table: 2539
epoch: 1000
next table: 2166
cur table: 2093
epoch: 1000
next table: 2658
cur table: 2723
epoch: 1000
next table: 2064
cur table: 2166
epoch: 1000
next table: 3005
cur table: 2658
epoch: 1000
next table: 2101
cur table: 2064
epoch: 1000
next table: 2475
cur table: 3005
epoch: 1000
next table: 2027
cur table: 2101
epoch: 1000
next table: 2570
cur table: 2475
epoch: 1000
next table: 2100
cur table: 2027
epoch: 1000
next table: 2633
cur table: 2570
epoch: 1000
next table: 2189
cur table: 2100
epoch: 1000
next table: 2717
cur table: 2633
epoch: 1000
next table: 2037
cur table: 2189
epoch: 1000
next table: 2708
cur table: 2717
epoch: 1000
next table: 2059
cur table: 2037
epoch: 1000
next table: 2682
cur table: 2708
epoch: 1000
next table: 2827
cur table: 2682
epoch: 1000
next table: 2156
cur table: 2059
epoch: 1000
next table: 2672
cur table: 2827
epoch: 1000
next table: 2229
cur table: 2156
epoch: 1000
next table: 2853
cur table: 2672
epoch: 1000
next table: 2116
cur table: 2229
epoch: 1000
next table: 2515
cur table: 2853
epoch: 1000
next table: 2075
cur table: 2116
epoch: 1000
next table: 2749
cur table: 2515
epoch: 1000
next table: 2061
cur table: 2075
epoch: 1000
next table: 2643
cur table: 2749
epoch: 1000
next table: 2036
cur table: 2061
epoch: 1000
next table: 2554
cur table: 2643
epoch: 1000
next table: 2044
cur table: 2036
epoch: 1000
next table: 2592
cur table: 2554
epoch: 1000
next table: 2325
cur table: 2044
epoch: 1000
next table: 2596
cur table: 2592
epoch: 1000
next table: 2033
cur table: 2325
epoch: 1000
next table: 2544
cur table: 2596
epoch: 1000
next table: 2903
cur table: 2544
epoch: 1000
next table: 2294
cur table: 2033
epoch: 1000
next table: 2729
cur table: 2903
epoch: 1000
next table: 2402
cur table: 2294
epoch: 1000
next table: 2698
cur table: 2729
epoch: 1000
next table: 2020
cur table: 2402
epoch: 1000
next table: 2564
cur table: 2698
epoch: 1000
next table: 2115
cur table: 2020
epoch: 1000
next table: 2740
cur table: 2564
epoch: 1000
next table: 2074
cur table: 2115
epoch: 1000
next table: 2734
cur table: 2740
epoch: 1000
next table: 2736
cur table: 2734
epoch: 1000
next table: 2125
cur table: 2074
epoch: 1000
next table: 2518
cur table: 2736
epoch: 1000
next table: 2062
cur table: 2125
epoch: 1000
next table: 2581
cur table: 2518
epoch: 1000
next table: 2026
cur table: 2062
epoch: 1000
next table: 2757
cur table: 2581
epoch: 1000
next table: 2080
cur table: 2026
epoch: 1000
next table: 2962
cur table: 2757
epoch: 1000
next table: 2080
cur table: 2080
epoch: 1000
next table: 2566
cur table: 2962
epoch: 1000
next table: 2113
cur table: 2080
epoch: 1000
next table: 2666
cur table: 2566
epoch: 1000
next table: 2196
cur table: 2113
epoch: 1000
next table: 2592
cur table: 2666
epoch: 1000
next table: 1987
cur table: 2196
epoch: 1000
next table: 2488
cur table: 2592
epoch: 1000
next table: 2014
cur table: 1987
epoch: 1000
next table: 2655
cur table: 2488
epoch: 1000
next table: 2068
cur table: 2014
epoch: 1000
next table: 2857
cur table: 2655
epoch: 1000
next table: 2049
cur table: 2068
epoch: 1000
next table: 2626
cur table: 2857
epoch: 1000
next table: 2139
cur table: 2049
epoch: 1000
next table: 2904
cur table: 2626
epoch: 1000
next table: 2094
cur table: 2139
epoch: 1000
next table: 2467
cur table: 2904
epoch: 1000
next table: 2054
cur table: 2094
epoch: 1000
next table: 2610
cur table: 2467
epoch: 1000
next table: 1981
cur table: 2054
epoch: 1000
next table: 2507
cur table: 2610
epoch: 1000
next table: 1919
cur table: 1981
epoch: 1000
next table: 2449
cur table: 2507
epoch: 1000
next table: 1885
cur table: 1919
epoch: 1000
next table: 2492
cur table: 2449
epoch: 1000
next table: 2025
cur table: 1885
epoch: 1000
next table: 2566
cur table: 2492
epoch: 1000
next table: 2087
cur table: 2025
epoch: 1000
next table: 2558
cur table: 2566
epoch: 1000
next table: 2681
cur table: 2558
epoch: 1000
next table: 2412
cur table: 2087
epoch: 1000
next table: 2789
cur table: 2681
epoch: 1000
next table: 2509
cur table: 2412
epoch: 1000
next table: 2971
cur table: 2789
epoch: 1000
next table: 2163
cur table: 2509
epoch: 1000
next table: 2624
cur table: 2971
epoch: 1000
next table: 2765
cur table: 2624
epoch: 1000
next table: 2272
cur table: 2163
epoch: 1000
next table: 2786
cur table: 2765
epoch: 1000
next table: 2213
cur table: 2272
epoch: 1000
next table: 2496
cur table: 2786
epoch: 1000
next table: 2171
cur table: 2213
epoch: 1000
next table: 2794
cur table: 2496
epoch: 1000
next table: 2083
cur table: 2171
epoch: 1000
next table: 2586
cur table: 2794
epoch: 1000
next table: 2053
cur table: 2083
epoch: 1000
next table: 2529
cur table: 2586
epoch: 1000
next table: 2095
cur table: 2053
epoch: 1000
next table: 2561
cur table: 2529
epoch: 1000
next table: 2668
cur table: 2561
epoch: 1000
next table: 2252
cur table: 2095
epoch: 1000
next table: 2615
cur table: 2668
epoch: 1000
next table: 1972
cur table: 2252
epoch: 1000
next table: 1882
cur table: 1972
epoch: 1000
next table: 2637
cur table: 2615
epoch: 1000
next table: 1886
cur table: 1882
epoch: 1000
next table: 2658
cur table: 2637
epoch: 1000
next table: 2086
cur table: 1886
epoch: 1000
next table: 2838
cur table: 2658
epoch: 1000
next table: 2665
cur table: 2838
epoch: 1000
next table: 2184
cur table: 2086
epoch: 1000
next table: 2659
cur table: 2665
epoch: 1000
next table: 2102
cur table: 2184
epoch: 1000
next table: 2581
cur table: 2659
epoch: 1000
next table: 2056
cur table: 2102
epoch: 1000
next table: 2559
cur table: 2581
epoch: 1000
next table: 2091
cur table: 2056
epoch: 1000
next table: 2947
cur table: 2559
epoch: 1000
next table: 2572
cur table: 2091
epoch: 1000
next table: 2697
cur table: 2947
epoch: 1000
next table: 2477
cur table: 2697
epoch: 1000
next table: 2083
cur table: 2572
epoch: 1000
next table: 2701
cur table: 2477
epoch: 1000
next table: 2170
cur table: 2083
epoch: 1000
next table: 2889
cur table: 2701
epoch: 1000
next table: 2383
cur table: 2170
epoch: 1000
next table: 2522
cur table: 2889
epoch: 1000
next table: 2358
cur table: 2383
epoch: 1000
next table: 2775
cur table: 2522
epoch: 1000
next table: 2560
cur table: 2775
epoch: 1000
next table: 2110
cur table: 2358
epoch: 1000
next table: 2698
cur table: 2560
epoch: 1000
next table: 2082
cur table: 2110
epoch: 1000
next table: 2601
cur table: 2698
epoch: 1000
next table: 2113
cur table: 2082
epoch: 1000
next table: 2542
cur table: 2601
epoch: 1000
next table: 2270
cur table: 2113
epoch: 1000
next table: 3000
cur table: 2542
epoch: 1000
next table: 2282
cur table: 2270
epoch: 1000
next table: 2816
cur table: 3000
epoch: 1000
next table: 2178
cur table: 2282
epoch: 1000
next table: 2649
cur table: 2816
epoch: 1000
next table: 2648
cur table: 2649
epoch: 1000
next table: 2130
cur table: 2178
epoch: 1000
next table: 2747
cur table: 2648
epoch: 1000
next table: 2203
cur table: 2130
epoch: 1000
next table: 2576
cur table: 2747
epoch: 1000
next table: 2051
cur table: 2203
epoch: 1000
next table: 2784
cur table: 2576
epoch: 1000
next table: 2139
cur table: 2051
epoch: 1000
next table: 2918
cur table: 2784
epoch: 1000
next table: 2141
cur table: 2139
epoch: 1000
next table: 2531
cur table: 2918
epoch: 1000
next table: 2034
cur table: 2141
epoch: 1000
next table: 2604
cur table: 2531
epoch: 1000
next table: 2135
cur table: 2034
epoch: 1000
next table: 2591
cur table: 2604
epoch: 1000
next table: 2050
cur table: 2135
epoch: 1000
next table: 2579
cur table: 2591
epoch: 1000
next table: 2693
cur table: 2579
epoch: 1000
next table: 2284
cur table: 2050
epoch: 1000
next table: 2684
cur table: 2693
epoch: 1000
next table: 2056
cur table: 2284
epoch: 1000
next table: 2636
cur table: 2684
epoch: 1000
next table: 2099
cur table: 2056
epoch: 1000
next table: 2578
cur table: 2636
epoch: 1000
next table: 2205
cur table: 2099
epoch: 1000
next table: 2882
cur table: 2578
epoch: 1000
next table: 2146
cur table: 2205
epoch: 1000
next table: 2575
cur table: 2882
epoch: 1000
next table: 2208
cur table: 2146
epoch: 1000
next table: 2622
cur table: 2575
epoch: 1000
next table: 2847
cur table: 2622
epoch: 1000
next table: 2448
cur table: 2208
epoch: 1000
next table: 2893
cur table: 2847
epoch: 1000
next table: 2300
cur table: 2448
epoch: 1000
next table: 2685
cur table: 2893
epoch: 1000
next table: 2148
cur table: 2300
epoch: 1000
next table: 2695
cur table: 2685
epoch: 1000
next table: 2115
cur table: 2148
epoch: 1000
next table: 2584
cur table: 2695
epoch: 1000
next table: 2102
cur table: 2115
epoch: 1000
next table: 2554
cur table: 2584
epoch: 1000
next table: 1968
cur table: 2102
epoch: 1000
next table: 2650
cur table: 2554
epoch: 1000
next table: 2539
cur table: 2650
epoch: 1000
next table: 2061
cur table: 1968
epoch: 1000
next table: 2626
cur table: 2539
epoch: 1000
next table: 2047
cur table: 2061
epoch: 1000
next table: 2682
cur table: 2626
epoch: 1000
next table: 2236
cur table: 2047
epoch: 1000
next table: 2807
cur table: 2682
epoch: 1000
next table: 2213
cur table: 2236
epoch: 1000
next table: 2574
cur table: 2807
epoch: 1000
next table: 2270
cur table: 2213
epoch: 1000
next table: 2849
cur table: 2574
epoch: 1000
next table: 2795
cur table: 2849
epoch: 1000
next table: 2492
cur table: 2270
epoch: 1000
next table: 2950
cur table: 2795
epoch: 1000
next table: 2362
cur table: 2492
epoch: 1000
next table: 2766
cur table: 2950
epoch: 1000
next table: 2053
cur table: 2362
epoch: 1000
next table: 2553
cur table: 2766
epoch: 1000
next table: 3014
cur table: 2553
epoch: 1000
next table: 2346
cur table: 2053
epoch: 1000
next table: 2450
cur table: 3014
epoch: 1000
next table: 2077
cur table: 2346
epoch: 1000
next table: 2731
cur table: 2450
epoch: 1000
next table: 2070
cur table: 2077
epoch: 1000
next table: 2709
cur table: 2731
epoch: 1000
next table: 1977
cur table: 2070
epoch: 1000
next table: 2810
cur table: 2709
epoch: 1000
next table: 2055
cur table: 1977
epoch: 1000
next table: 2824
cur table: 2810
epoch: 1000
next table: 1927
cur table: 2055
epoch: 1000
next table: 2694
cur table: 2824
epoch: 1000
next table: 2163
cur table: 1927
epoch: 1000
next table: 2734
cur table: 2694
epoch: 1000
next table: 1948
cur table: 2163
epoch: 1000
next table: 2562
cur table: 2734
epoch: 1000
next table: 1933
cur table: 1948
epoch: 1000
next table: 2511
cur table: 2562
epoch: 1000
next table: 2054
cur table: 1933
epoch: 1000
next table: 2552
cur table: 2511
epoch: 1000
next table: 2058
cur table: 2054
epoch: 1000
next table: 2709
cur table: 2552
epoch: 1000
next table: 2378
cur table: 2058
epoch: 1000
next table: 2710
cur table: 2709
epoch: 1000
next table: 2243
cur table: 2378
epoch: 1000
next table: 2619
cur table: 2710
epoch: 1000
next table: 1979
cur table: 2243
epoch: 1000
next table: 2533
cur table: 2619
epoch: 1000
next table: 2634
cur table: 2533
epoch: 1000
next table: 2146
cur table: 1979
epoch: 1000
next table: 1863
cur table: 2146
epoch: 1000
next table: 2614
cur table: 2634
epoch: 1000
next table: 1970
cur table: 1863
epoch: 1000
next table: 2504
cur table: 2614
epoch: 1000
next table: 2099
cur table: 1970
epoch: 1000
next table: 2757
cur table: 2504
Heartbeat CPU 0 instructions: 20000001 cycles: 7803970 heartbeat IPC: 2.56398 cumulative IPC: 2.5628 (Simulation time: 0 hr 5 min 57 sec) 
epoch: 1000
next table: 2741
cur table: 2757
epoch: 1000
next table: 2379
cur table: 2099
epoch: 1000
next table: 2708
cur table: 2741
epoch: 1000
next table: 2280
cur table: 2379
epoch: 1000
next table: 2709
cur table: 2708
epoch: 1000
next table: 2045
cur table: 2280
epoch: 1000
next table: 2618
cur table: 2709
epoch: 1000
next table: 2067
cur table: 2045
epoch: 1000
next table: 2824
cur table: 2618
epoch: 1000
next table: 2170
cur table: 2067
epoch: 1000
next table: 2695
cur table: 2824
epoch: 1000
next table: 1963
cur table: 2170
epoch: 1000
next table: 2734
cur table: 2695
epoch: 1000
next table: 1890
cur table: 1963
epoch: 1000
next table: 2558
cur table: 2734
epoch: 1000
next table: 1943
cur table: 1890
epoch: 1000
next table: 2916
cur table: 2558
epoch: 1000
next table: 2043
cur table: 1943
epoch: 1000
next table: 2743
cur table: 2916
epoch: 1000
next table: 1917
cur table: 2043
epoch: 1000
next table: 2598
cur table: 2743
epoch: 1000
next table: 2042
cur table: 1917
epoch: 1000
next table: 2775
cur table: 2598
epoch: 1000
next table: 2217
cur table: 2042
epoch: 1000
next table: 2892
cur table: 2775
epoch: 1000
next table: 2038
cur table: 2217
epoch: 1000
next table: 2604
cur table: 2892
epoch: 1000
next table: 1994
cur table: 2038
epoch: 1000
next table: 2719
cur table: 2604
epoch: 1000
next table: 2590
cur table: 2719
epoch: 1000
next table: 2020
cur table: 1994
epoch: 1000
next table: 2537
cur table: 2590
epoch: 1000
next table: 2051
cur table: 2020
epoch: 1000
next table: 2653
cur table: 2537
epoch: 1000
next table: 2281
cur table: 2051
epoch: 1000
next table: 2765
cur table: 2653
epoch: 1000
next table: 2270
cur table: 2281
epoch: 1000
next table: 2665
cur table: 2765
epoch: 1000
next table: 2039
cur table: 2270
epoch: 1000
next table: 2608
cur table: 2665
epoch: 1000
next table: 2327
cur table: 2039
epoch: 1000
next table: 2799
cur table: 2608
epoch: 1000
next table: 2582
cur table: 2799
epoch: 1000
next table: 2327
cur table: 2327
epoch: 1000
next table: 2573
cur table: 2582
epoch: 1000
next table: 2058
cur table: 2327
epoch: 1000
next table: 2604
cur table: 2573
epoch: 1000
next table: 2569
cur table: 2058
epoch: 1000
next table: 2786
cur table: 2604
epoch: 1000
next table: 2903
cur table: 2786
epoch: 1000
next table: 2375
cur table: 2569
epoch: 1000
next table: 3010
cur table: 2903
epoch: 1000
next table: 2219
cur table: 2375
epoch: 1000
next table: 2525
cur table: 3010
epoch: 1000
next table: 2109
cur table: 2219
epoch: 1000
next table: 2624
cur table: 2525
epoch: 1000
next table: 2005
cur table: 2109
epoch: 1000
next table: 2510
cur table: 2624
epoch: 1000
next table: 2055
cur table: 2005
epoch: 1000
next table: 2558
cur table: 2510
epoch: 1000
next table: 2075
cur table: 2055
epoch: 1000
next table: 2613
cur table: 2558
epoch: 1000
next table: 2171
cur table: 2075
epoch: 1000
next table: 2744
cur table: 2613
epoch: 1000
next table: 2869
cur table: 2744
epoch: 1000
next table: 2222
cur table: 2171
epoch: 1000
next table: 2554
cur table: 2869
epoch: 1000
next table: 2112
cur table: 2222
epoch: 1000
next table: 2773
cur table: 2554
epoch: 1000
next table: 2025
cur table: 2112
epoch: 1000
next table: 2539
cur table: 2773
epoch: 1000
next table: 2031
cur table: 2025
epoch: 1000
next table: 2520
cur table: 2539
epoch: 1000
next table: 2078
cur table: 2031
epoch: 1000
next table: 2791
cur table: 2520
epoch: 1000
next table: 2472
cur table: 2078
epoch: 1000
next table: 2581
cur table: 2791
epoch: 1000
next table: 2563
cur table: 2581
epoch: 1000
next table: 2347
cur table: 2472
epoch: 1000
next table: 2582
cur table: 2563
epoch: 1000
next table: 2099
cur table: 2347
epoch: 1000
next table: 2671
cur table: 2582
epoch: 1000
next table: 2144
cur table: 2099
epoch: 1000
next table: 2591
cur table: 2671
epoch: 1000
next table: 2030
cur table: 2144
epoch: 1000
next table: 2663
cur table: 2591
epoch: 1000
next table: 2689
cur table: 2663
epoch: 1000
next table: 2717
cur table: 2030
epoch: 1000
next table: 2795
cur table: 2689
epoch: 1000
next table: 2498
cur table: 2717
epoch: 1000
next table: 2538
cur table: 2795
epoch: 1000
next table: 2785
cur table: 2538
epoch: 1000
next table: 2442
cur table: 2498
epoch: 1000
next table: 2887
cur table: 2785
epoch: 1000
next table: 2398
cur table: 2442
epoch: 1000
next table: 2541
cur table: 2887
epoch: 1000
next table: 2125
cur table: 2398
epoch: 1000
next table: 2523
cur table: 2541
epoch: 1000
next table: 2129
cur table: 2125
epoch: 1000
next table: 2657
cur table: 2523
epoch: 1000
next table: 2088
cur table: 2129
epoch: 1000
next table: 2602
cur table: 2657
epoch: 1000
next table: 2086
cur table: 2088
epoch: 1000
next table: 2593
cur table: 2602
epoch: 1000
next table: 2779
cur table: 2593
epoch: 1000
next table: 2094
cur table: 2086
epoch: 1000
next table: 2552
cur table: 2779
epoch: 1000
next table: 2032
cur table: 2094
epoch: 1000
next table: 2636
cur table: 2552
epoch: 1000
next table: 2168
cur table: 2032
epoch: 1000
next table: 2836
cur table: 2636
epoch: 1000
next table: 2306
cur table: 2168
epoch: 1000
next table: 2661
cur table: 2836
epoch: 1000
next table: 2160
cur table: 2306
epoch: 1000
next table: 2660
cur table: 2661
epoch: 1000
next table: 2211
cur table: 2160
epoch: 1000
next table: 2561
cur table: 2660
epoch: 1000
next table: 2786
cur table: 2561
epoch: 1000
next table: 2267
cur table: 2211
epoch: 1000
next table: 2582
cur table: 2786
epoch: 1000
next table: 2068
cur table: 2267
epoch: 1000
next table: 2645
cur table: 2582
epoch: 1000
next table: 2195
cur table: 2068
epoch: 1000
next table: 2619
cur table: 2645
epoch: 1000
next table: 2328
cur table: 2195
epoch: 1000
next table: 2401
cur table: 2619
epoch: 1000
next table: 2105
cur table: 2328
epoch: 1000
next table: 2761
cur table: 2401
epoch: 1000
next table: 2609
cur table: 2761
epoch: 1000
next table: 2225
cur table: 2105
epoch: 1000
next table: 2565
cur table: 2609
epoch: 1000
next table: 2114
cur table: 2225
epoch: 1000
next table: 2919
cur table: 2565
epoch: 1000
next table: 2231
cur table: 2114
epoch: 1000
next table: 2557
cur table: 2919
epoch: 1000
next table: 2044
cur table: 2231
epoch: 1000
next table: 2747
cur table: 2557
epoch: 1000
next table: 2018
cur table: 2044
epoch: 1000
next table: 2644
cur table: 2747
epoch: 1000
next table: 2124
cur table: 2018
epoch: 1000
next table: 2636
cur table: 2644
epoch: 1000
next table: 1975
cur table: 2124
epoch: 1000
next table: 2773
cur table: 2636
epoch: 1000
next table: 2292
cur table: 1975
epoch: 1000
next table: 2725
cur table: 2773
epoch: 1000
next table: 2572
cur table: 2725
epoch: 1000
next table: 2063
cur table: 2292
epoch: 1000
next table: 2473
cur table: 2572
epoch: 1000
next table: 2115
cur table: 2063
epoch: 1000
next table: 2879
cur table: 2473
epoch: 1000
next table: 2365
cur table: 2115
epoch: 1000
next table: 2776
cur table: 2879
epoch: 1000
next table: 2362
cur table: 2365
epoch: 1000
next table: 2559
cur table: 2776
epoch: 1000
next table: 2664
cur table: 2559
epoch: 1000
next table: 2332
cur table: 2362
epoch: 1000
next table: 2611
cur table: 2664
epoch: 1000
next table: 2403
cur table: 2332
epoch: 1000
next table: 2692
cur table: 2611
epoch: 1000
next table: 2053
cur table: 2403
epoch: 1000
next table: 2600
cur table: 2692
epoch: 1000
next table: 2281
cur table: 2053
epoch: 1000
next table: 2721
cur table: 2600
epoch: 1000
next table: 2850
cur table: 2721
epoch: 1000
next table: 2742
cur table: 2281
epoch: 1000
next table: 2741
cur table: 2850
epoch: 1000
next table: 2070
cur table: 2742
epoch: 1000
next table: 2593
cur table: 2741
epoch: 1000
next table: 2068
cur table: 2070
epoch: 1000
next table: 2715
cur table: 2593
epoch: 1000
next table: 2120
cur table: 2068
epoch: 1000
next table: 2548
cur table: 2715
epoch: 1000
next table: 2658
cur table: 2548
epoch: 1000
next table: 2347
cur table: 2120
epoch: 1000
next table: 2682
cur table: 2658
epoch: 1000
next table: 2510
cur table: 2347
epoch: 1000
next table: 2878
cur table: 2682
epoch: 1000
next table: 2969
cur table: 2878
epoch: 1000
next table: 2248
cur table: 2510
epoch: 1000
next table: 2588
cur table: 2969
epoch: 1000
next table: 2250
cur table: 2248
epoch: 1000
next table: 2571
cur table: 2588
epoch: 1000
next table: 2174
cur table: 2250
epoch: 1000
next table: 2524
cur table: 2571
epoch: 1000
next table: 2143
cur table: 2174
epoch: 1000
next table: 2646
cur table: 2524
epoch: 1000
next table: 2094
cur table: 2143
epoch: 1000
next table: 2729
cur table: 2646
epoch: 1000
next table: 2150
cur table: 2094
epoch: 1000
next table: 2724
cur table: 2729
epoch: 1000
next table: 2025
cur table: 2150
epoch: 1000
next table: 2656
cur table: 2724
epoch: 1000
next table: 2091
cur table: 2025
epoch: 1000
next table: 2504
cur table: 2656
epoch: 1000
next table: 2028
cur table: 2091
epoch: 1000
next table: 2535
cur table: 2504
epoch: 1000
next table: 2609
cur table: 2535
epoch: 1000
next table: 2046
cur table: 2028
epoch: 1000
next table: 2984
cur table: 2609
epoch: 1000
next table: 2462
cur table: 2046
epoch: 1000
next table: 2597
cur table: 2984
epoch: 1000
next table: 2022
cur table: 2462
epoch: 1000
next table: 2608
cur table: 2597
epoch: 1000
next table: 2089
cur table: 2022
epoch: 1000
next table: 2606
cur table: 2608
epoch: 1000
next table: 2157
cur table: 2089
epoch: 1000
next table: 2640
cur table: 2606
epoch: 1000
next table: 2756
cur table: 2640
epoch: 1000
next table: 2496
cur table: 2157
epoch: 1000
next table: 2612
cur table: 2756
epoch: 1000
next table: 1869
cur table: 2496
epoch: 1000
next table: 2610
cur table: 2612
epoch: 1000
next table: 1972
cur table: 1869
epoch: 1000
next table: 2734
cur table: 2610
epoch: 1000
next table: 2076
cur table: 1972
epoch: 1000
next table: 2645
cur table: 2734
epoch: 1000
next table: 1899
cur table: 2076
epoch: 1000
next table: 2771
cur table: 2645
epoch: 1000
next table: 2179
cur table: 1899
epoch: 1000
next table: 2835
cur table: 2771
epoch: 1000
next table: 1895
cur table: 2179
epoch: 1000
next table: 2548
cur table: 2835
epoch: 1000
next table: 1951
cur table: 1895
epoch: 1000
next table: 1884
cur table: 1951
epoch: 1000
next table: 2763
cur table: 2548
epoch: 1000
next table: 1930
cur table: 1884
epoch: 1000
next table: 2650
cur table: 2763
epoch: 1000
next table: 2059
cur table: 1930
epoch: 1000
next table: 2557
cur table: 2650
epoch: 1000
next table: 2908
cur table: 2557
epoch: 1000
next table: 2493
cur table: 2059
epoch: 1000
next table: 2701
cur table: 2908
epoch: 1000
next table: 2786
cur table: 2701
epoch: 1000
next table: 2703
cur table: 2493
epoch: 1000
next table: 2675
cur table: 2786
epoch: 1000
next table: 2165
cur table: 2703
epoch: 1000
next table: 2700
cur table: 2675
epoch: 1000
next table: 2101
cur table: 2165
epoch: 1000
next table: 2594
cur table: 2700
epoch: 1000
next table: 2080
cur table: 2101
epoch: 1000
next table: 2681
cur table: 2594
epoch: 1000
next table: 2402
cur table: 2080
epoch: 1000
next table: 2770
cur table: 2681
epoch: 1000
next table: 2059
cur table: 2402
epoch: 1000
next table: 2520
cur table: 2770
epoch: 1000
next table: 2552
cur table: 2520
epoch: 1000
next table: 2095
cur table: 2059
epoch: 1000
next table: 2795
cur table: 2552
epoch: 1000
next table: 2049
cur table: 2095
epoch: 1000
next table: 2615
cur table: 2795
epoch: 1000
next table: 2021
cur table: 2049
epoch: 1000
next table: 2725
cur table: 2615
epoch: 1000
next table: 2426
cur table: 2021
epoch: 1000
next table: 2768
cur table: 2725
epoch: 1000
next table: 2408
cur table: 2426
epoch: 1000
next table: 2611
cur table: 2768
epoch: 1000
next table: 2008
cur table: 2408
epoch: 1000
next table: 2533
cur table: 2611
epoch: 1000
next table: 2568
cur table: 2533
epoch: 1000
next table: 2068
cur table: 2008
epoch: 1000
next table: 2591
cur table: 2568
epoch: 1000
next table: 2119
cur table: 2068
epoch: 1000
next table: 2802
cur table: 2591
epoch: 1000
next table: 2074
cur table: 2119
epoch: 1000
next table: 2591
cur table: 2802
epoch: 1000
next table: 2113
cur table: 2074
epoch: 1000
next table: 2551
cur table: 2591
epoch: 1000
next table: 3009
cur table: 2551
epoch: 1000
next table: 2634
cur table: 2113
epoch: 1000
next table: 2524
cur table: 3009
epoch: 1000
next table: 2027
cur table: 2634
epoch: 1000
next table: 2611
cur table: 2524
epoch: 1000
next table: 2442
cur table: 2027
epoch: 1000
next table: 2554
cur table: 2611
epoch: 1000
next table: 2148
cur table: 2442
epoch: 1000
next table: 2574
cur table: 2554
epoch: 1000
next table: 2050
cur table: 2148
epoch: 1000
next table: 2621
cur table: 2574
Heartbeat CPU 0 instructions: 30000003 cycles: 11699710 heartbeat IPC: 2.56691 cumulative IPC: 2.56417 (Simulation time: 0 hr 9 min 5 sec) 
epoch: 1000
next table: 2181
cur table: 2050
epoch: 1000
next table: 2654
cur table: 2621
epoch: 1000
next table: 2675
cur table: 2654
epoch: 1000
next table: 2325
cur table: 2181
epoch: 1000
next table: 2580
cur table: 2675
epoch: 1000
next table: 2058
cur table: 2325
epoch: 1000
next table: 2770
cur table: 2580
epoch: 1000
next table: 2581
cur table: 2058
epoch: 1000
next table: 2547
cur table: 2770
epoch: 1000
next table: 2584
cur table: 2547
epoch: 1000
next table: 2672
cur table: 2581
epoch: 1000
next table: 2591
cur table: 2584
epoch: 1000
next table: 2170
cur table: 2672
epoch: 1000
next table: 2675
cur table: 2591
epoch: 1000
next table: 2079
cur table: 2170
epoch: 1000
next table: 2643
cur table: 2675
epoch: 1000
next table: 2091
cur table: 2079
epoch: 1000
next table: 2509
cur table: 2643
epoch: 1000
next table: 2035
cur table: 2091
epoch: 1000
next table: 2577
cur table: 2509
epoch: 1000
next table: 2647
cur table: 2577
epoch: 1000
next table: 2391
cur table: 2035
epoch: 1000
next table: 2549
cur table: 2647
epoch: 1000
next table: 2402
cur table: 2391
epoch: 1000
next table: 2836
cur table: 2549
epoch: 1000
next table: 2223
cur table: 2402
epoch: 1000
next table: 2763
cur table: 2836
epoch: 1000
next table: 2941
cur table: 2763
epoch: 1000
next table: 2162
cur table: 2223
epoch: 1000
next table: 2644
cur table: 2941
epoch: 1000
next table: 2114
cur table: 2162
epoch: 1000
next table: 2728
cur table: 2644
epoch: 1000
next table: 2060
cur table: 2114
epoch: 1000
next table: 2538
cur table: 2728
epoch: 1000
next table: 1990
cur table: 2060
epoch: 1000
next table: 2631
cur table: 2538
epoch: 1000
next table: 2114
cur table: 1990
epoch: 1000
next table: 2558
cur table: 2631
epoch: 1000
next table: 2055
cur table: 2114
epoch: 1000
next table: 2631
cur table: 2558
epoch: 1000
next table: 2036
cur table: 2055
epoch: 1000
next table: 2518
cur table: 2631
epoch: 1000
next table: 2173
cur table: 2036
epoch: 1000
next table: 2650
cur table: 2518
epoch: 1000
next table: 2079
cur table: 2173
epoch: 1000
next table: 2837
cur table: 2650
epoch: 1000
next table: 2765
cur table: 2837
epoch: 1000
next table: 2405
cur table: 2079
epoch: 1000
next table: 2664
cur table: 2765
epoch: 1000
next table: 2155
cur table: 2405
epoch: 1000
next table: 2525
cur table: 2664
epoch: 1000
next table: 2216
cur table: 2155
epoch: 1000
next table: 2659
cur table: 2525
epoch: 1000
next table: 2898
cur table: 2659
epoch: 1000
next table: 2629
cur table: 2216
epoch: 1000
next table: 2563
cur table: 2898
epoch: 1000
next table: 2114
cur table: 2629
epoch: 1000
next table: 2684
cur table: 2563
epoch: 1000
next table: 2424
cur table: 2114
epoch: 1000
next table: 2895
cur table: 2684
epoch: 1000
next table: 2118
cur table: 2424
epoch: 1000
next table: 2559
cur table: 2895
epoch: 1000
next table: 2109
cur table: 2118
epoch: 1000
next table: 2488
cur table: 2559
epoch: 1000
next table: 2850
cur table: 2488
epoch: 1000
next table: 2301
cur table: 2109
epoch: 1000
next table: 2670
cur table: 2850
epoch: 1000
next table: 2285
cur table: 2301
epoch: 1000
next table: 2562
cur table: 2670
epoch: 1000
next table: 2016
cur table: 2285
epoch: 1000
next table: 2681
cur table: 2562
epoch: 1000
next table: 2254
cur table: 2016
epoch: 1000
next table: 2632
cur table: 2681
epoch: 1000
next table: 2786
cur table: 2632
epoch: 1000
next table: 2304
cur table: 2254
epoch: 1000
next table: 2529
cur table: 2786
epoch: 1000
next table: 2032
cur table: 2304
epoch: 1000
next table: 2789
cur table: 2529
epoch: 1000
next table: 2190
cur table: 2032
epoch: 1000
next table: 2650
cur table: 2789
epoch: 1000
next table: 2125
cur table: 2190
epoch: 1000
next table: 2535
cur table: 2650
epoch: 1000
next table: 2048
cur table: 2125
epoch: 1000
next table: 2629
cur table: 2535
epoch: 1000
next table: 2003
cur table: 2048
epoch: 1000
next table: 2597
cur table: 2629
epoch: 1000
next table: 2068
cur table: 2003
epoch: 1000
next table: 2497
cur table: 2597
epoch: 1000
next table: 2248
cur table: 2068
epoch: 1000
next table: 2817
cur table: 2497
epoch: 1000
next table: 2051
cur table: 2248
epoch: 1000
next table: 2531
cur table: 2817
epoch: 1000
next table: 3014
cur table: 2531
epoch: 1000
next table: 2259
cur table: 2051
epoch: 1000
next table: 2563
cur table: 3014
epoch: 1000
next table: 1995
cur table: 2259
epoch: 1000
next table: 2691
cur table: 2563
epoch: 1000
next table: 2525
cur table: 1995
epoch: 1000
next table: 2843
cur table: 2691
epoch: 1000
next table: 2388
cur table: 2525
epoch: 1000
next table: 2488
cur table: 2843
epoch: 1000
next table: 2609
cur table: 2488
epoch: 1000
next table: 2131
cur table: 2388
epoch: 1000
next table: 2614
cur table: 2609
epoch: 1000
next table: 2086
cur table: 2131
epoch: 1000
next table: 2848
cur table: 2614
epoch: 1000
next table: 2585
cur table: 2086
epoch: 1000
next table: 2735
cur table: 2848
epoch: 1000
next table: 2080
cur table: 2585
epoch: 1000
next table: 2572
cur table: 2735
epoch: 1000
next table: 2071
cur table: 2080
epoch: 1000
next table: 2670
cur table: 2572
epoch: 1000
next table: 2862
cur table: 2670
epoch: 1000
next table: 2165
cur table: 2071
epoch: 1000
next table: 2536
cur table: 2862
epoch: 1000
next table: 2052
cur table: 2165
epoch: 1000
next table: 2851
cur table: 2536
epoch: 1000
next table: 2202
cur table: 2052
epoch: 1000
next table: 2823
cur table: 2851
epoch: 1000
next table: 2063
cur table: 2202
epoch: 1000
next table: 2676
cur table: 2823
epoch: 1000
next table: 2179
cur table: 2063
epoch: 1000
next table: 2802
cur table: 2676
epoch: 1000
next table: 2156
cur table: 2179
epoch: 1000
next table: 2727
cur table: 2802
epoch: 1000
next table: 2069
cur table: 2156
epoch: 1000
next table: 2668
cur table: 2727
epoch: 1000
next table: 2068
cur table: 2069
epoch: 1000
next table: 2544
cur table: 2668
epoch: 1000
next table: 2625
cur table: 2544
epoch: 1000
next table: 2144
cur table: 2068
epoch: 1000
next table: 2580
cur table: 2625
epoch: 1000
next table: 2099
cur table: 2144
epoch: 1000
next table: 2525
cur table: 2580
epoch: 1000
next table: 2084
cur table: 2099
epoch: 1000
next table: 2844
cur table: 2525
epoch: 1000
next table: 2043
cur table: 2084
epoch: 1000
next table: 2556
cur table: 2844
epoch: 1000
next table: 2135
cur table: 2043
epoch: 1000
next table: 2647
cur table: 2556
epoch: 1000
next table: 2011
cur table: 2135
epoch: 1000
next table: 2640
cur table: 2647
epoch: 1000
next table: 2101
cur table: 2011
epoch: 1000
next table: 2545
cur table: 2640
epoch: 1000
next table: 2256
cur table: 2101
epoch: 1000
next table: 2695
cur table: 2545
epoch: 1000
next table: 2685
cur table: 2695
epoch: 1000
next table: 2419
cur table: 2256
epoch: 1000
next table: 2550
cur table: 2685
epoch: 1000
next table: 2032
cur table: 2419
epoch: 1000
next table: 2787
cur table: 2550
epoch: 1000
next table: 2310
cur table: 2032
epoch: 1000
next table: 2750
cur table: 2787
epoch: 1000
next table: 2100
cur table: 2310
epoch: 1000
next table: 2757
cur table: 2750
epoch: 1000
next table: 2185
cur table: 2100
epoch: 1000
next table: 2513
cur table: 2757
epoch: 1000
next table: 2103
cur table: 2185
epoch: 1000
next table: 2714
cur table: 2513
epoch: 1000
next table: 2854
cur table: 2714
epoch: 1000
next table: 2248
cur table: 2103
epoch: 1000
next table: 2572
cur table: 2854
epoch: 1000
next table: 2115
cur table: 2248
epoch: 1000
next table: 2767
cur table: 2572
epoch: 1000
next table: 2206
cur table: 2115
epoch: 1000
next table: 2900
cur table: 2767
epoch: 1000
next table: 2255
cur table: 2206
epoch: 1000
next table: 2578
cur table: 2900
epoch: 1000
next table: 2160
cur table: 2255
epoch: 1000
next table: 2529
cur table: 2578
epoch: 1000
next table: 2881
cur table: 2529
epoch: 1000
next table: 2165
cur table: 2160
epoch: 1000
next table: 2504
cur table: 2881
epoch: 1000
next table: 2025
cur table: 2165
epoch: 1000
next table: 2857
cur table: 2504
epoch: 1000
next table: 2312
cur table: 2025
epoch: 1000
next table: 2551
cur table: 2857
epoch: 1000
next table: 2087
cur table: 2312
epoch: 1000
next table: 2694
cur table: 2551
epoch: 1000
next table: 2467
cur table: 2087
epoch: 1000
next table: 3268
cur table: 2694
epoch: 1000
next table: 1993
cur table: 2467
epoch: 1000
next table: 2408
cur table: 3268
epoch: 1000
next table: 2046
cur table: 1993
epoch: 1000
next table: 2495
cur table: 2408
epoch: 1000
next table: 2711
cur table: 2495
epoch: 1000
next table: 2076
cur table: 2046
epoch: 1000
next table: 2631
cur table: 2711
epoch: 1000
next table: 2227
cur table: 2076
epoch: 1000
next table: 2866
cur table: 2631
epoch: 1000
next table: 2292
cur table: 2227
epoch: 1000
next table: 2859
cur table: 2866
epoch: 1000
next table: 2214
cur table: 2292
epoch: 1000
next table: 2587
cur table: 2859
epoch: 1000
next table: 2005
cur table: 2214
epoch: 1000
next table: 2645
cur table: 2587
epoch: 1000
next table: 2095
cur table: 2005
epoch: 1000
next table: 2580
cur table: 2645
epoch: 1000
next table: 3000
cur table: 2580
epoch: 1000
next table: 2162
cur table: 2095
epoch: 1000
next table: 2597
cur table: 3000
epoch: 1000
next table: 2057
cur table: 2162
epoch: 1000
next table: 2625
cur table: 2597
epoch: 1000
next table: 1977
cur table: 2057
epoch: 1000
next table: 2532
cur table: 2625
epoch: 1000
next table: 2003
cur table: 1977
epoch: 1000
next table: 2964
cur table: 2532
epoch: 1000
next table: 2422
cur table: 2003
epoch: 1000
next table: 2475
cur table: 2964
epoch: 1000
next table: 1879
cur table: 2422
epoch: 1000
next table: 2180
cur table: 2475
epoch: 1000
next table: 1868
cur table: 1879
epoch: 1000
next table: 2229
cur table: 2180
epoch: 1000
next table: 1862
cur table: 1868
epoch: 1000
next table: 2200
cur table: 2229
epoch: 1000
next table: 1851
cur table: 1862
epoch: 1000
next table: 1797
cur table: 1851
epoch: 1000
next table: 2361
cur table: 2200
epoch: 1000
next table: 1876
cur table: 1797
epoch: 1000
next table: 2253
cur table: 2361
epoch: 1000
next table: 1914
cur table: 1876
epoch: 1000
next table: 2344
cur table: 2253
epoch: 1000
next table: 2076
cur table: 1914
epoch: 1000
next table: 2453
cur table: 2344
epoch: 1000
next table: 2056
cur table: 2076
epoch: 1000
next table: 2472
cur table: 2453
epoch: 1000
next table: 2056
cur table: 2056
epoch: 1000
next table: 2450
cur table: 2472
epoch: 1000
next table: 2038
cur table: 2056
epoch: 1000
next table: 2550
cur table: 2450
epoch: 1000
next table: 2003
cur table: 2038
epoch: 1000
next table: 2651
cur table: 2550
epoch: 1000
next table: 2022
cur table: 2003
epoch: 1000
next table: 2512
cur table: 2651
epoch: 1000
next table: 1983
cur table: 2022
epoch: 1000
next table: 2546
cur table: 2512
epoch: 1000
next table: 1965
cur table: 1983
epoch: 1000
next table: 2542
cur table: 2546
epoch: 1000
next table: 2497
cur table: 2542
epoch: 1000
next table: 2081
cur table: 1965
epoch: 1000
next table: 2540
cur table: 2497
epoch: 1000
next table: 2104
cur table: 2081
epoch: 1000
next table: 2542
cur table: 2540
epoch: 1000
next table: 2077
cur table: 2104
epoch: 1000
next table: 2515
cur table: 2542
epoch: 1000
next table: 2198
cur table: 2077
epoch: 1000
next table: 2372
cur table: 2515
epoch: 1000
next table: 2315
cur table: 2198
epoch: 1000
next table: 2423
cur table: 2372
epoch: 1000
next table: 2237
cur table: 2423
epoch: 1000
next table: 2313
cur table: 2315
epoch: 1000
next table: 2312
cur table: 2237
epoch: 1000
next table: 2313
cur table: 2313
epoch: 1000
next table: 2238
cur table: 2312
epoch: 1000
next table: 2331
cur table: 2313
epoch: 1000
next table: 2257
cur table: 2238
epoch: 1000
next table: 2310
cur table: 2331
epoch: 1000
next table: 2324
cur table: 2257
epoch: 1000
next table: 2393
cur table: 2324
epoch: 1000
next table: 2334
cur table: 2310
epoch: 1000
next table: 2368
cur table: 2393
epoch: 1000
next table: 2655
cur table: 2334
epoch: 1000
next table: 2449
cur table: 2368
epoch: 1000
next table: 2611
cur table: 2449
epoch: 1000
next table: 2661
cur table: 2655
epoch: 1000
next table: 2585
cur table: 2611
epoch: 1000
next table: 2793
cur table: 2585
epoch: 1000
next table: 2759
cur table: 2661
epoch: 1000
next table: 2580
cur table: 2793
epoch: 1000
next table: 2152
cur table: 2759
epoch: 1000
next table: 2467
cur table: 2580
epoch: 1000
next table: 2097
cur table: 2152
epoch: 1000
next table: 2505
cur table: 2467
epoch: 1000
next table: 2038
cur table: 2097
epoch: 1000
next table: 2558
cur table: 2505
epoch: 1000
next table: 2484
cur table: 2558
epoch: 1000
next table: 2420
cur table: 2038
epoch: 1000
next table: 2569
cur table: 2484
epoch: 1000
next table: 2094
cur table: 2420
epoch: 1000
next table: 2454
cur table: 2569
epoch: 1000
next table: 2140
cur table: 2094
epoch: 1000
next table: 2450
cur table: 2454
epoch: 1000
next table: 2052
cur table: 2140
epoch: 1000
next table: 3073
cur table: 2450
epoch: 1000
next table: 2001
cur table: 2052
epoch: 1000
next table: 2493
cur table: 3073
Heartbeat CPU 0 instructions: 40000001 cycles: 15604479 heartbeat IPC: 2.56097 cumulative IPC: 2.56337 (Simulation time: 0 hr 12 min 6 sec) 
epoch: 1000
next table: 2099
cur table: 2001
epoch: 1000
next table: 2739
cur table: 2493
epoch: 1000
next table: 2004
cur table: 2099
epoch: 1000
next table: 2591
cur table: 2739
epoch: 1000
next table: 2016
cur table: 2004
epoch: 1000
next table: 2701
cur table: 2591
epoch: 1000
next table: 1979
cur table: 2016
epoch: 1000
next table: 2581
cur table: 2701
epoch: 1000
next table: 2050
cur table: 1979
epoch: 1000
next table: 2548
cur table: 2581
epoch: 1000
next table: 2178
cur table: 2050
epoch: 1000
next table: 2532
cur table: 2548
epoch: 1000
next table: 2751
cur table: 2532
epoch: 1000
next table: 2442
cur table: 2178
epoch: 1000
next table: 3261
cur table: 2751
epoch: 1000
next table: 2335
cur table: 2442
epoch: 1000
next table: 2698
cur table: 3261
epoch: 1000
next table: 2787
cur table: 2698
epoch: 1000
next table: 2580
cur table: 2335
epoch: 1000
next table: 2591
cur table: 2787
epoch: 1000
next table: 2404
cur table: 2580
epoch: 1000
next table: 2572
cur table: 2591
epoch: 1000
next table: 2672
cur table: 2572
epoch: 1000
next table: 2539
cur table: 2404
epoch: 1000
next table: 2598
cur table: 2672
epoch: 1000
next table: 2514
cur table: 2539
epoch: 1000
next table: 2815
cur table: 2598
epoch: 1000
next table: 2278
cur table: 2514
epoch: 1000
next table: 2450
cur table: 2815
epoch: 1000
next table: 2636
cur table: 2450
epoch: 1000
next table: 2240
cur table: 2278
epoch: 1000
next table: 2502
cur table: 2636
epoch: 1000
next table: 2086
cur table: 2240
epoch: 1000
next table: 2664
cur table: 2502
epoch: 1000
next table: 2118
cur table: 2086
epoch: 1000
next table: 2557
cur table: 2664
epoch: 1000
next table: 2082
cur table: 2118
epoch: 1000
next table: 2510
cur table: 2557
epoch: 1000
next table: 2071
cur table: 2082
epoch: 1000
next table: 3113
cur table: 2510
epoch: 1000
next table: 1970
cur table: 2071
epoch: 1000
next table: 2515
cur table: 3113
epoch: 1000
next table: 1776
cur table: 1970
epoch: 1000
next table: 1777
cur table: 1776
epoch: 1000
next table: 2519
cur table: 2515
epoch: 1000
next table: 1954
cur table: 1777
epoch: 1000
next table: 2591
cur table: 2519
epoch: 1000
next table: 2032
cur table: 1954
epoch: 1000
next table: 2659
cur table: 2591
epoch: 1000
next table: 2561
cur table: 2659
epoch: 1000
next table: 2069
cur table: 2032
epoch: 1000
next table: 2588
cur table: 2561
epoch: 1000
next table: 2093
cur table: 2069
epoch: 1000
next table: 2755
cur table: 2588
epoch: 1000
next table: 2294
cur table: 2093
epoch: 1000
next table: 2683
cur table: 2755
epoch: 1000
next table: 2148
cur table: 2294
epoch: 1000
next table: 2562
cur table: 2683
epoch: 1000
next table: 2233
cur table: 2148
epoch: 1000
next table: 2659
cur table: 2562
epoch: 1000
next table: 2069
cur table: 2233
epoch: 1000
next table: 2765
cur table: 2659
epoch: 1000
next table: 2036
cur table: 2069
epoch: 1000
next table: 2785
cur table: 2765
epoch: 1000
next table: 1840
cur table: 2036
epoch: 1000
next table: 2548
cur table: 2785
epoch: 1000
next table: 1924
cur table: 1840
epoch: 1000
next table: 2616
cur table: 2548
epoch: 1000
next table: 1828
cur table: 1924
epoch: 1000
next table: 2593
cur table: 2616
epoch: 1000
next table: 1823
cur table: 1828
epoch: 1000
next table: 2594
cur table: 2593
epoch: 1000
next table: 1978
cur table: 1823
epoch: 1000
next table: 2998
cur table: 2594
epoch: 1000
next table: 1906
cur table: 1978
epoch: 1000
next table: 2572
cur table: 2998
epoch: 1000
next table: 1833
cur table: 1906
epoch: 1000
next table: 1917
cur table: 1833
epoch: 1000
next table: 2762
cur table: 2572
epoch: 1000
next table: 1827
cur table: 1917
epoch: 1000
next table: 2683
cur table: 2762
epoch: 1000
next table: 1920
cur table: 1827
epoch: 1000
next table: 2644
cur table: 2683
epoch: 1000
next table: 1812
cur table: 1920
epoch: 1000
next table: 2655
cur table: 2644
epoch: 1000
next table: 1869
cur table: 1812
epoch: 1000
next table: 2696
cur table: 2655
epoch: 1000
next table: 2117
cur table: 1869
epoch: 1000
next table: 2742
cur table: 2696
epoch: 1000
next table: 2057
cur table: 2117
epoch: 1000
next table: 2701
cur table: 2742
epoch: 1000
next table: 1866
cur table: 2057
epoch: 1000
next table: 2587
cur table: 2701
epoch: 1000
next table: 1969
cur table: 1866
epoch: 1000
next table: 3039
cur table: 2587
epoch: 1000
next table: 1946
cur table: 1969
epoch: 1000
next table: 2546
cur table: 3039
epoch: 1000
next table: 1831
cur table: 1946
epoch: 1000
next table: 2851
cur table: 2546
epoch: 1000
next table: 2117
cur table: 1831
epoch: 1000
next table: 2761
cur table: 2851
epoch: 1000
next table: 1856
cur table: 2117
epoch: 1000
next table: 2533
cur table: 2761
epoch: 1000
next table: 1886
cur table: 1856
epoch: 1000
next table: 1881
cur table: 1886
epoch: 1000
next table: 2657
cur table: 2533
epoch: 1000
next table: 1870
cur table: 1881
epoch: 1000
next table: 2665
cur table: 2657
epoch: 1000
next table: 1847
cur table: 1870
epoch: 1000
next table: 2669
cur table: 2665
epoch: 1000
next table: 2240
cur table: 1847
epoch: 1000
next table: 2771
cur table: 2669
epoch: 1000
next table: 1993
cur table: 2240
epoch: 1000
next table: 2638
cur table: 2771
epoch: 1000
next table: 1868
cur table: 1993
epoch: 1000
next table: 2723
cur table: 2638
epoch: 1000
next table: 1864
cur table: 1868
epoch: 1000
next table: 2534
cur table: 2723
epoch: 1000
next table: 1847
cur table: 1864
epoch: 1000
next table: 2685
cur table: 2534
epoch: 1000
next table: 2172
cur table: 1847
epoch: 1000
next table: 2646
cur table: 2685
epoch: 1000
next table: 1875
cur table: 2172
epoch: 1000
next table: 2613
cur table: 2646
epoch: 1000
next table: 2072
cur table: 1875
epoch: 1000
next table: 2598
cur table: 2613
epoch: 1000
next table: 2148
cur table: 2072
epoch: 1000
next table: 2648
cur table: 2598
epoch: 1000
next table: 2027
cur table: 2148
epoch: 1000
next table: 2645
cur table: 2648
epoch: 1000
next table: 2817
cur table: 2645
epoch: 1000
next table: 2502
cur table: 2027
epoch: 1000
next table: 2603
cur table: 2817
epoch: 1000
next table: 2034
cur table: 2502
epoch: 1000
next table: 2491
cur table: 2603
epoch: 1000
next table: 2019
cur table: 2034
epoch: 1000
next table: 2776
cur table: 2491
epoch: 1000
next table: 2241
cur table: 2019
epoch: 1000
next table: 2584
cur table: 2776
epoch: 1000
next table: 2153
cur table: 2241
epoch: 1000
next table: 2629
cur table: 2584
epoch: 1000
next table: 2064
cur table: 2153
epoch: 1000
next table: 2650
cur table: 2629
epoch: 1000
next table: 2034
cur table: 2064
epoch: 1000
next table: 2500
cur table: 2650
epoch: 1000
next table: 2049
cur table: 2034
epoch: 1000
next table: 2825
cur table: 2500
epoch: 1000
next table: 2747
cur table: 2825
epoch: 1000
next table: 2418
cur table: 2049
epoch: 1000
next table: 2535
cur table: 2747
epoch: 1000
next table: 1915
cur table: 2418
epoch: 1000
next table: 2657
cur table: 2535
epoch: 1000
next table: 2081
cur table: 1915
epoch: 1000
next table: 2528
cur table: 2657
epoch: 1000
next table: 2070
cur table: 2081
epoch: 1000
next table: 2521
cur table: 2528
epoch: 1000
next table: 2020
cur table: 2070
epoch: 1000
next table: 2978
cur table: 2521
epoch: 1000
next table: 2523
cur table: 2020
epoch: 1000
next table: 2887
cur table: 2978
epoch: 1000
next table: 2062
cur table: 2523
epoch: 1000
next table: 2505
cur table: 2887
epoch: 1000
next table: 2094
cur table: 2062
epoch: 1000
next table: 2555
cur table: 2505
epoch: 1000
next table: 1967
cur table: 2094
epoch: 1000
next table: 2587
cur table: 2555
epoch: 1000
next table: 2680
cur table: 2587
epoch: 1000
next table: 2148
cur table: 1967
epoch: 1000
next table: 2582
cur table: 2680
epoch: 1000
next table: 2050
cur table: 2148
epoch: 1000
next table: 2655
cur table: 2582
epoch: 1000
next table: 2666
cur table: 2050
epoch: 1000
next table: 2703
cur table: 2655
epoch: 1000
next table: 2598
cur table: 2703
epoch: 1000
next table: 2175
cur table: 2666
epoch: 1000
next table: 2640
cur table: 2598
epoch: 1000
next table: 2124
cur table: 2175
epoch: 1000
next table: 2385
cur table: 2640
epoch: 1000
next table: 2525
cur table: 2124
epoch: 1000
next table: 2640
cur table: 2385
epoch: 1000
next table: 2247
cur table: 2525
epoch: 1000
next table: 2686
cur table: 2640
epoch: 1000
next table: 2849
cur table: 2686
epoch: 1000
next table: 2204
cur table: 2247
epoch: 1000
next table: 2591
cur table: 2849
epoch: 1000
next table: 2087
cur table: 2204
epoch: 1000
next table: 2789
cur table: 2591
epoch: 1000
next table: 2157
cur table: 2087
epoch: 1000
next table: 2588
cur table: 2789
epoch: 1000
next table: 2111
cur table: 2157
epoch: 1000
next table: 2654
cur table: 2588
epoch: 1000
next table: 2181
cur table: 2111
epoch: 1000
next table: 3029
cur table: 2654
epoch: 1000
next table: 2144
cur table: 2181
epoch: 1000
next table: 2723
cur table: 3029
epoch: 1000
next table: 2185
cur table: 2144
epoch: 1000
next table: 2806
cur table: 2723
epoch: 1000
next table: 1949
cur table: 2185
epoch: 1000
next table: 2464
cur table: 2806
epoch: 1000
next table: 2684
cur table: 2464
epoch: 1000
next table: 2076
cur table: 1949
epoch: 1000
next table: 1980
cur table: 2076
epoch: 1000
next table: 2626
cur table: 2684
epoch: 1000
next table: 2665
cur table: 2626
epoch: 1000
next table: 2032
cur table: 1980
epoch: 1000
next table: 2698
cur table: 2665
epoch: 1000
next table: 2172
cur table: 2032
epoch: 1000
next table: 2937
cur table: 2698
epoch: 1000
next table: 2175
cur table: 2172
epoch: 1000
next table: 2531
cur table: 2937
epoch: 1000
next table: 2163
cur table: 2175
epoch: 1000
next table: 2630
cur table: 2531
epoch: 1000
next table: 2038
cur table: 2163
epoch: 1000
next table: 2590
cur table: 2630
epoch: 1000
next table: 2081
cur table: 2038
epoch: 1000
next table: 2845
cur table: 2590
epoch: 1000
next table: 1962
cur table: 2081
epoch: 1000
next table: 2477
cur table: 2845
epoch: 1000
next table: 2325
cur table: 1962
epoch: 1000
next table: 2853
cur table: 2477
epoch: 1000
next table: 2003
cur table: 2325
epoch: 1000
next table: 2513
cur table: 2853
epoch: 1000
next table: 1986
cur table: 2003
epoch: 1000
next table: 2609
cur table: 2513
epoch: 1000
next table: 2629
cur table: 2609
epoch: 1000
next table: 2086
cur table: 1986
epoch: 1000
next table: 2701
cur table: 2629
epoch: 1000
next table: 2233
cur table: 2086
epoch: 1000
next table: 2667
cur table: 2701
epoch: 1000
next table: 2173
cur table: 2233
epoch: 1000
next table: 2448
cur table: 2667
epoch: 1000
next table: 1942
cur table: 2173
epoch: 1000
next table: 2545
cur table: 2448
epoch: 1000
next table: 1975
cur table: 1942
epoch: 1000
next table: 2858
cur table: 2545
epoch: 1000
next table: 2320
cur table: 1975
epoch: 1000
next table: 2721
cur table: 2858
epoch: 1000
next table: 2645
cur table: 2721
epoch: 1000
next table: 2548
cur table: 2320
epoch: 1000
next table: 2672
cur table: 2645
epoch: 1000
next table: 2494
cur table: 2548
epoch: 1000
next table: 2760
cur table: 2672
epoch: 1000
next table: 2295
cur table: 2494
epoch: 1000
next table: 2590
cur table: 2760
epoch: 1000
next table: 2819
cur table: 2590
epoch: 1000
next table: 2092
cur table: 2295
epoch: 1000
next table: 2426
cur table: 2819
epoch: 1000
next table: 2149
cur table: 2092
epoch: 1000
next table: 2505
cur table: 2426
epoch: 1000
next table: 2006
cur table: 2149
epoch: 1000
next table: 2465
cur table: 2505
epoch: 1000
next table: 2004
cur table: 2006
epoch: 1000
next table: 2838
cur table: 2465
epoch: 1000
next table: 2113
cur table: 2004
epoch: 1000
next table: 2847
cur table: 2838
epoch: 1000
next table: 2127
cur table: 2113
epoch: 1000
next table: 2537
cur table: 2847
epoch: 1000
next table: 2038
cur table: 2127
epoch: 1000
next table: 2400
cur table: 2537
epoch: 1000
next table: 2079
cur table: 2038
epoch: 1000
next table: 2616
cur table: 2400
epoch: 1000
next table: 2107
cur table: 2079
epoch: 1000
next table: 2713
cur table: 2616
epoch: 1000
next table: 2110
cur table: 2107
epoch: 1000
next table: 2521
cur table: 2713
epoch: 1000
next table: 2038
cur table: 2110
epoch: 1000
next table: 2712
cur table: 2521
epoch: 1000
next table: 2063
cur table: 2038
epoch: 1000
next table: 2561
cur table: 2712
epoch: 1000
next table: 2655
cur table: 2561
epoch: 1000
next table: 2085
cur table: 2063
epoch: 1000
next table: 1921
cur table: 2085
epoch: 1000
next table: 2613
cur table: 2655
epoch: 1000
next table: 1913
cur table: 1921
epoch: 1000
next table: 2484
cur table: 2613
epoch: 1000
next table: 2040
cur table: 1913
epoch: 1000
next table: 2582
cur table: 2484
epoch: 1000
next table: 2101
cur table: 2040
epoch: 1000
next table: 2418
cur table: 2582
epoch: 1000
next table: 2898
cur table: 2418
epoch: 1000
next table: 2385
cur table: 2101
epoch: 1000
next table: 2708
cur table: 2898
epoch: 1000
next table: 2432
cur table: 2385
epoch: 1000
next table: 2686
cur table: 2708
epoch: 1000
next table: 2669
cur table: 2686
epoch: 1000
next table: 2459
cur table: 2432
epoch: 1000
next table: 2538
cur table: 2669
Heartbeat CPU 0 instructions: 50000000 cycles: 19511099 heartbeat IPC: 2.55976 cumulative IPC: 2.56264 (Simulation time: 0 hr 14 min 52 sec) 

Warmup complete CPU 0 instructions: 50000004 cycles: 19511100 (Simulation time: 0 hr 14 min 52 sec) 

epoch: 1000
next table: 2850
cur table: 2794
epoch: 1000
next table: 2329
cur table: 2340
epoch: 1000
next table: 2598
cur table: 2850
epoch: 1000
next table: 2052
cur table: 2329
epoch: 1000
next table: 2654
cur table: 2598
epoch: 1000
next table: 2236
cur table: 2052
epoch: 1000
next table: 2560
cur table: 2654
epoch: 1000
next table: 2771
cur table: 2560
epoch: 1000
next table: 2336
cur table: 2236
epoch: 1000
next table: 2696
cur table: 2771
epoch: 1000
next table: 2128
cur table: 2336
epoch: 1000
next table: 2664
cur table: 2696
epoch: 1000
next table: 2226
cur table: 2128
epoch: 1000
next table: 2814
cur table: 2664
epoch: 1000
next table: 2240
cur table: 2226
epoch: 1000
next table: 2730
cur table: 2814
epoch: 1000
next table: 2707
cur table: 2730
epoch: 1000
next table: 2170
cur table: 2240
epoch: 1000
next table: 2771
cur table: 2707
epoch: 1000
next table: 2346
cur table: 2170
epoch: 1000
next table: 2684
cur table: 2771
epoch: 1000
next table: 2110
cur table: 2346
epoch: 1000
next table: 3100
cur table: 2684
epoch: 1000
next table: 2119
cur table: 2110
epoch: 1000
next table: 2587
cur table: 3100
epoch: 1000
next table: 2117
cur table: 2119
epoch: 1000
next table: 2553
cur table: 2587
epoch: 1000
next table: 2119
cur table: 2117
epoch: 1000
next table: 2778
cur table: 2553
epoch: 1000
next table: 2083
cur table: 2119
epoch: 1000
next table: 2497
cur table: 2778
epoch: 1000
next table: 2769
cur table: 2497
epoch: 1000
next table: 2133
cur table: 2083
epoch: 1000
next table: 2577
cur table: 2769
epoch: 1000
next table: 2011
cur table: 2133
epoch: 1000
next table: 2629
cur table: 2577
epoch: 1000
next table: 2110
cur table: 2011
epoch: 1000
next table: 2616
cur table: 2629
epoch: 1000
next table: 2058
cur table: 2110
epoch: 1000
next table: 2473
cur table: 2616
epoch: 1000
next table: 2113
cur table: 2058
epoch: 1000
next table: 2520
cur table: 2473
epoch: 1000
next table: 1949
cur table: 2113
epoch: 1000
next table: 2357
cur table: 2520
epoch: 1000
next table: 1898
cur table: 1949
epoch: 1000
next table: 2312
cur table: 2357
epoch: 1000
next table: 1893
cur table: 1898
epoch: 1000
next table: 1728
cur table: 1893
epoch: 1000
next table: 2641
cur table: 2312
epoch: 1000
next table: 1802
cur table: 1728
epoch: 1000
next table: 2484
cur table: 2641
epoch: 1000
next table: 1800
cur table: 1802
epoch: 1000
next table: 2356
cur table: 2484
epoch: 1000
next table: 1797
cur table: 1800
epoch: 1000
next table: 2263
cur table: 2356
epoch: 1000
next table: 1772
cur table: 1797
epoch: 1000
next table: 2533
cur table: 2263
epoch: 1000
next table: 1814
cur table: 1772
epoch: 1000
next table: 1828
cur table: 1814
epoch: 1000
next table: 2569
cur table: 2533
epoch: 1000
next table: 1847
cur table: 1828
epoch: 1000
next table: 2581
cur table: 2569
epoch: 1000
next table: 1835
cur table: 1847
epoch: 1000
next table: 2556
cur table: 2581
epoch: 1000
next table: 1836
cur table: 1835
epoch: 1000
next table: 2531
cur table: 2556
epoch: 1000
next table: 1821
cur table: 1836
epoch: 1000
next table: 2525
cur table: 2531
epoch: 1000
next table: 1863
cur table: 1821
epoch: 1000
next table: 2483
cur table: 2525
epoch: 1000
next table: 1855
cur table: 1863
epoch: 1000
next table: 1905
cur table: 1855
epoch: 1000
next table: 2321
cur table: 2483
epoch: 1000
next table: 1836
cur table: 1905
epoch: 1000
next table: 2411
cur table: 2321
epoch: 1000
next table: 1841
cur table: 1836
epoch: 1000
next table: 2419
cur table: 2411
epoch: 1000
next table: 1840
cur table: 1841
epoch: 1000
next table: 2407
cur table: 2419
epoch: 1000
next table: 1857
cur table: 1840
epoch: 1000
next table: 2616
cur table: 2407
epoch: 1000
next table: 2549
cur table: 1857
epoch: 1000
next table: 2820
cur table: 2616
epoch: 1000
next table: 2848
cur table: 2820
epoch: 1000
next table: 2413
cur table: 2549
epoch: 1000
next table: 2442
cur table: 2848
epoch: 1000
next table: 2093
cur table: 2413
epoch: 1000
next table: 2495
cur table: 2442
epoch: 1000
next table: 2127
cur table: 2093
epoch: 1000
next table: 2560
cur table: 2495
epoch: 1000
next table: 2033
cur table: 2127
epoch: 1000
next table: 2571
cur table: 2560
epoch: 1000
next table: 2139
cur table: 2033
epoch: 1000
next table: 2549
cur table: 2571
epoch: 1000
next table: 2050
cur table: 2139
epoch: 1000
next table: 2505
cur table: 2549
epoch: 1000
next table: 2005
cur table: 2050
epoch: 1000
next table: 2532
cur table: 2505
epoch: 1000
next table: 2116
cur table: 2005
epoch: 1000
next table: 2584
cur table: 2532
epoch: 1000
next table: 2095
cur table: 2116
epoch: 1000
next table: 2621
cur table: 2584
epoch: 1000
next table: 2485
cur table: 2621
epoch: 1000
next table: 2108
cur table: 2095
epoch: 1000
next table: 2434
cur table: 2485
epoch: 1000
next table: 2112
cur table: 2108
epoch: 1000
next table: 2893
cur table: 2434
epoch: 1000
next table: 2342
cur table: 2112
epoch: 1000
next table: 2327
cur table: 2893
epoch: 1000
next table: 2374
cur table: 2327
epoch: 1000
next table: 2671
cur table: 2342
epoch: 1000
next table: 2300
cur table: 2374
epoch: 1000
next table: 2631
cur table: 2671
epoch: 1000
next table: 2340
cur table: 2300
epoch: 1000
next table: 2427
cur table: 2340
epoch: 1000
next table: 2524
cur table: 2631
epoch: 1000
next table: 2447
cur table: 2427
epoch: 1000
next table: 2650
cur table: 2524
epoch: 1000
next table: 2482
cur table: 2447
epoch: 1000
next table: 2482
cur table: 2482
epoch: 1000
next table: 2405
cur table: 2650
epoch: 1000
next table: 2494
cur table: 2482
epoch: 1000
next table: 2317
cur table: 2405
epoch: 1000
next table: 2542
cur table: 2494
epoch: 1000
next table: 2267
cur table: 2317
epoch: 1000
next table: 2727
cur table: 2542
epoch: 1000
next table: 2435
cur table: 2727
epoch: 1000
next table: 2341
cur table: 2267
epoch: 1000
next table: 2419
cur table: 2435
epoch: 1000
next table: 2184
cur table: 2341
epoch: 1000
next table: 2449
cur table: 2419
epoch: 1000
next table: 2128
cur table: 2184
epoch: 1000
next table: 2470
cur table: 2449
epoch: 1000
next table: 2623
cur table: 2470
epoch: 1000
next table: 2365
cur table: 2128
epoch: 1000
next table: 2597
cur table: 2623
epoch: 1000
next table: 2122
cur table: 2365
epoch: 1000
next table: 2387
cur table: 2597
epoch: 1000
next table: 2019
cur table: 2122
epoch: 1000
next table: 2576
cur table: 2387
epoch: 1000
next table: 2188
cur table: 2019
epoch: 1000
next table: 2811
cur table: 2576
epoch: 1000
next table: 2237
cur table: 2188
epoch: 1000
next table: 2491
cur table: 2811
epoch: 1000
next table: 2510
cur table: 2491
epoch: 1000
next table: 2490
cur table: 2237
epoch: 1000
next table: 2467
cur table: 2510
epoch: 1000
next table: 2047
cur table: 2490
epoch: 1000
next table: 2443
cur table: 2467
epoch: 1000
next table: 2194
cur table: 2047
epoch: 1000
next table: 2731
cur table: 2443
epoch: 1000
next table: 2581
cur table: 2194
epoch: 1000
next table: 2925
cur table: 2731
epoch: 1000
next table: 2067
cur table: 2581
epoch: 1000
next table: 2570
cur table: 2925
epoch: 1000
next table: 2317
cur table: 2570
epoch: 1000
next table: 2061
cur table: 2067
epoch: 1000
next table: 2871
cur table: 2317
epoch: 1000
next table: 2009
cur table: 2061
epoch: 1000
next table: 2743
cur table: 2871
epoch: 1000
next table: 2351
cur table: 2009
epoch: 1000
next table: 2652
cur table: 2743
epoch: 1000
next table: 2095
cur table: 2351
epoch: 1000
next table: 2569
cur table: 2652
epoch: 1000
next table: 2062
cur table: 2095
epoch: 1000
next table: 2630
cur table: 2569
epoch: 1000
next table: 1982
cur table: 2062
epoch: 1000
next table: 2505
cur table: 2630
epoch: 1000
next table: 2220
cur table: 1982
epoch: 1000
next table: 2662
cur table: 2505
epoch: 1000
next table: 2208
cur table: 2220
epoch: 1000
next table: 2740
cur table: 2662
epoch: 1000
next table: 2913
cur table: 2740
epoch: 1000
next table: 2183
cur table: 2208
epoch: 1000
next table: 2524
cur table: 2913
epoch: 1000
next table: 2038
cur table: 2183
epoch: 1000
next table: 2696
cur table: 2524
epoch: 1000
next table: 2299
cur table: 2038
epoch: 1000
next table: 2739
cur table: 2696
epoch: 1000
next table: 2107
cur table: 2299
epoch: 1000
next table: 2512
cur table: 2739
epoch: 1000
next table: 2124
cur table: 2107
epoch: 1000
next table: 2651
cur table: 2512
epoch: 1000
next table: 2111
cur table: 2124
epoch: 1000
next table: 2719
cur table: 2651
epoch: 1000
next table: 2114
cur table: 2111
epoch: 1000
next table: 2561
cur table: 2719
epoch: 1000
next table: 2716
cur table: 2561
epoch: 1000
next table: 2185
cur table: 2114
epoch: 1000
next table: 2792
cur table: 2716
epoch: 1000
next table: 2297
cur table: 2185
epoch: 1000
next table: 2872
cur table: 2792
epoch: 1000
next table: 2167
cur table: 2297
epoch: 1000
next table: 2653
cur table: 2872
epoch: 1000
next table: 2021
cur table: 2167
epoch: 1000
next table: 2625
cur table: 2653
epoch: 1000
next table: 2221
cur table: 2021
epoch: 1000
next table: 2798
cur table: 2625
epoch: 1000
next table: 2129
cur table: 2221
epoch: 1000
next table: 2658
cur table: 2798
epoch: 1000
next table: 2013
cur table: 2129
epoch: 1000
next table: 2485
cur table: 2658
epoch: 1000
next table: 2801
cur table: 2485
epoch: 1000
next table: 2241
cur table: 2013
epoch: 1000
next table: 2752
cur table: 2801
epoch: 1000
next table: 2094
cur table: 2241
epoch: 1000
next table: 2509
cur table: 2752
epoch: 1000
next table: 2081
cur table: 2094
epoch: 1000
next table: 2784
cur table: 2509
epoch: 1000
next table: 2242
cur table: 2081
epoch: 1000
next table: 2891
cur table: 2784
epoch: 1000
next table: 2014
cur table: 2242
epoch: 1000
next table: 2557
cur table: 2891
epoch: 1000
next table: 2056
cur table: 2014
epoch: 1000
next table: 2843
cur table: 2557
epoch: 1000
next table: 2074
cur table: 2056
epoch: 1000
next table: 2579
cur table: 2843
epoch: 1000
next table: 2044
cur table: 2074
epoch: 1000
next table: 2603
cur table: 2579
epoch: 1000
next table: 3010
cur table: 2603
epoch: 1000
next table: 2275
cur table: 2044
epoch: 1000
next table: 2700
cur table: 3010
epoch: 1000
next table: 2090
cur table: 2275
epoch: 1000
next table: 2724
cur table: 2700
epoch: 1000
next table: 2181
cur table: 2090
epoch: 1000
next table: 2838
cur table: 2724
epoch: 1000
next table: 2182
cur table: 2181
epoch: 1000
next table: 2570
cur table: 2838
epoch: 1000
next table: 2010
cur table: 2182
epoch: 1000
next table: 2685
cur table: 2570
epoch: 1000
next table: 2094
cur table: 2010
epoch: 1000
next table: 2621
cur table: 2685
epoch: 1000
next table: 2009
cur table: 2094
epoch: 1000
next table: 2698
cur table: 2621
epoch: 1000
next table: 2031
cur table: 2009
epoch: 1000
next table: 2573
cur table: 2698
epoch: 1000
next table: 2049
cur table: 2031
epoch: 1000
next table: 2673
cur table: 2573
epoch: 1000
next table: 1997
cur table: 2049
epoch: 1000
next table: 2475
cur table: 2673
epoch: 1000
next table: 2795
cur table: 2475
epoch: 1000
next table: 2410
cur table: 1997
epoch: 1000
next table: 2754
cur table: 2795
epoch: 1000
next table: 2256
cur table: 2410
epoch: 1000
next table: 2552
cur table: 2754
epoch: 1000
next table: 2192
cur table: 2256
epoch: 1000
next table: 2707
cur table: 2552
epoch: 1000
next table: 2321
cur table: 2192
epoch: 1000
next table: 2701
cur table: 2707
epoch: 1000
next table: 2754
cur table: 2701
epoch: 1000
next table: 2414
cur table: 2321
epoch: 1000
next table: 2597
cur table: 2754
epoch: 1000
next table: 2120
cur table: 2414
epoch: 1000
next table: 2523
cur table: 2597
epoch: 1000
next table: 2134
cur table: 2120
epoch: 1000
next table: 2546
cur table: 2523
epoch: 1000
next table: 2200
cur table: 2134
epoch: 1000
next table: 2685
cur table: 2546
epoch: 1000
next table: 2203
cur table: 2200
epoch: 1000
next table: 2604
cur table: 2685
epoch: 1000
next table: 2650
cur table: 2604
epoch: 1000
next table: 2436
cur table: 2203
epoch: 1000
next table: 2620
cur table: 2650
epoch: 1000
next table: 2115
cur table: 2436
epoch: 1000
next table: 2744
cur table: 2620
epoch: 1000
next table: 2942
cur table: 2744
epoch: 1000
next table: 2538
cur table: 2115
epoch: 1000
next table: 2590
cur table: 2942
epoch: 1000
next table: 2090
cur table: 2538
epoch: 1000
next table: 2684
cur table: 2590
epoch: 1000
next table: 2051
cur table: 2090
epoch: 1000
next table: 2589
cur table: 2684
epoch: 1000
next table: 2047
cur table: 2051
epoch: 1000
next table: 2597
cur table: 2589
epoch: 1000
next table: 2056
cur table: 2047
epoch: 1000
next table: 2477
cur table: 2597
epoch: 1000
next table: 2178
cur table: 2056
epoch: 1000
next table: 2946
cur table: 2477
epoch: 1000
next table: 2416
cur table: 2178
epoch: 1000
next table: 2716
cur table: 2946
epoch: 1000
next table: 2056
cur table: 2416
epoch: 1000
next table: 2590
cur table: 2716
epoch: 1000
next table: 2723
cur table: 2590
epoch: 1000
next table: 2329
cur table: 2056
epoch: 1000
next table: 2638
cur table: 2723
Heartbeat CPU 0 instructions: 60000001 cycles: 65288066 heartbeat IPC: 0.21845 cumulative IPC: 0.21845 (Simulation time: 0 hr 18 min 16 sec) 
epoch: 1000
next table: 2527
cur table: 2329
epoch: 1000
next table: 2964
cur table: 2638
epoch: 1000
next table: 2926
cur table: 2964
epoch: 1000
next table: 2278
cur table: 2527
epoch: 1000
next table: 2650
cur table: 2926
epoch: 1000
next table: 2085
cur table: 2278
epoch: 1000
next table: 2570
cur table: 2650
epoch: 1000
next table: 2092
cur table: 2085
epoch: 1000
next table: 2754
cur table: 2570
epoch: 1000
next table: 2046
cur table: 2092
epoch: 1000
next table: 2537
cur table: 2754
epoch: 1000
next table: 2128
cur table: 2046
epoch: 1000
next table: 2496
cur table: 2537
epoch: 1000
next table: 2098
cur table: 2128
epoch: 1000
next table: 2804
cur table: 2496
epoch: 1000
next table: 2057
cur table: 2098
epoch: 1000
next table: 2534
cur table: 2804
epoch: 1000
next table: 2150
cur table: 2057
epoch: 1000
next table: 2781
cur table: 2534
epoch: 1000
next table: 2847
cur table: 2781
epoch: 1000
next table: 2337
cur table: 2150
epoch: 1000
next table: 3042
cur table: 2847
epoch: 1000
next table: 2281
cur table: 2337
epoch: 1000
next table: 2935
cur table: 3042
epoch: 1000
next table: 2196
cur table: 2281
epoch: 1000
next table: 2552
cur table: 2935
epoch: 1000
next table: 2080
cur table: 2196
epoch: 1000
next table: 2649
cur table: 2552
epoch: 1000
next table: 2034
cur table: 2080
epoch: 1000
next table: 2622
cur table: 2649
epoch: 1000
next table: 2085
cur table: 2034
epoch: 1000
next table: 2915
cur table: 2622
epoch: 1000
next table: 2040
cur table: 2085
epoch: 1000
next table: 2640
cur table: 2915
epoch: 1000
next table: 2049
cur table: 2040
epoch: 1000
next table: 2651
cur table: 2640
epoch: 1000
next table: 2101
cur table: 2049
epoch: 1000
next table: 2631
cur table: 2651
epoch: 1000
next table: 2988
cur table: 2631
epoch: 1000
next table: 2178
cur table: 2101
epoch: 1000
next table: 2567
cur table: 2988
epoch: 1000
next table: 2118
cur table: 2178
epoch: 1000
next table: 2809
cur table: 2567
epoch: 1000
next table: 2181
cur table: 2118
epoch: 1000
next table: 2645
cur table: 2809
epoch: 1000
next table: 2114
cur table: 2181
epoch: 1000
next table: 2496
cur table: 2645
epoch: 1000
next table: 2318
cur table: 2114
epoch: 1000
next table: 2764
cur table: 2496
epoch: 1000
next table: 2991
cur table: 2764
epoch: 1000
next table: 2169
cur table: 2318
epoch: 1000
next table: 2767
cur table: 2991
epoch: 1000
next table: 2139
cur table: 2169
epoch: 1000
next table: 2561
cur table: 2767
epoch: 1000
next table: 2164
cur table: 2139
epoch: 1000
next table: 2536
cur table: 2561
epoch: 1000
next table: 2213
cur table: 2164
epoch: 1000
next table: 2520
cur table: 2536
epoch: 1000
next table: 2089
cur table: 2213
epoch: 1000
next table: 2874
cur table: 2520
epoch: 1000
next table: 2757
cur table: 2874
epoch: 1000
next table: 2347
cur table: 2089
epoch: 1000
next table: 2637
cur table: 2757
epoch: 1000
next table: 2136
cur table: 2347
epoch: 1000
next table: 2715
cur table: 2637
epoch: 1000
next table: 2183
cur table: 2136
epoch: 1000
next table: 2605
cur table: 2715
epoch: 1000
next table: 2005
cur table: 2183
epoch: 1000
next table: 2636
cur table: 2605
epoch: 1000
next table: 2052
cur table: 2005
epoch: 1000
next table: 2623
cur table: 2636
epoch: 1000
next table: 2802
cur table: 2623
epoch: 1000
next table: 2682
cur table: 2052
epoch: 1000
next table: 2678
cur table: 2802
epoch: 1000
next table: 2400
cur table: 2682
epoch: 1000
next table: 2684
cur table: 2678
epoch: 1000
next table: 2405
cur table: 2400
epoch: 1000
next table: 2729
cur table: 2684
epoch: 1000
next table: 2587
cur table: 2729
epoch: 1000
next table: 2139
cur table: 2405
epoch: 1000
next table: 2529
cur table: 2587
epoch: 1000
next table: 2111
cur table: 2139
epoch: 1000
next table: 2555
cur table: 2529
epoch: 1000
next table: 2253
cur table: 2111
epoch: 1000
next table: 3179
cur table: 2555
epoch: 1000
next table: 2401
cur table: 2253
epoch: 1000
next table: 2606
cur table: 3179
epoch: 1000
next table: 2076
cur table: 2401
epoch: 1000
next table: 2518
[...]
cur table: 2075
epoch: 1000
next table: 2657
cur table: 2612
epoch: 1000
next table: 2820
cur table: 2657
epoch: 1000
next table: 2474
cur table: 2149
epoch: 1000
next table: 2484
cur table: 2820
epoch: 1000
next table: 2114
cur table: 2474
epoch: 1000
next table: 2571
cur table: 2484
epoch: 1000
next table: 2127
cur table: 2114
epoch: 1000
next table: 2799
cur table: 2571
epoch: 1000
next table: 2242
cur table: 2127
epoch: 1000
next table: 2648
cur table: 2799
epoch: 1000
next table: 2267
cur table: 2242
epoch: 1000
next table: 2617
cur table: 2648
epoch: 1000
next table: 2522
cur table: 2617
epoch: 1000
next table: 2136
cur table: 2267
epoch: 1000
next table: 2574
cur table: 2522
epoch: 1000
next table: 2050
cur table: 2136
epoch: 1000
next table: 2862
cur table: 2574
epoch: 1000
next table: 2181
cur table: 2050
epoch: 1000
next table: 2547
cur table: 2862
epoch: 1000
next table: 2539
cur table: 2181
epoch: 1000
next table: 2606
cur table: 2547
epoch: 1000
next table: 2686
cur table: 2606
epoch: 1000
next table: 2364
cur table: 2539
epoch: 1000
next table: 2515
cur table: 2686
epoch: 1000
next table: 2188
cur table: 2364
epoch: 1000
next table: 2620
cur table: 2515
epoch: 1000
next table: 2029
cur table: 2188
epoch: 1000
next table: 2700
cur table: 2620
epoch: 1000
next table: 1960
cur table: 2029
epoch: 1000
next table: 2853
cur table: 2700
epoch: 1000
next table: 2851
cur table: 2853
epoch: 1000
next table: 2582
cur table: 1960
epoch: 1000
next table: 2557
cur table: 2851
epoch: 1000
next table: 2139
cur table: 2582
epoch: 1000
next table: 2751
cur table: 2557
epoch: 1000
next table: 2100
cur table: 2139
epoch: 1000
next table: 2572
cur table: 2751
epoch: 1000
next table: 2077
cur table: 2100
epoch: 1000
next table: 2663
cur table: 2572
epoch: 1000
next table: 2051
cur table: 2077
epoch: 1000
next table: 2588
cur table: 2663
epoch: 1000
next table: 2102
cur table: 2051
epoch: 1000
next table: 2702
cur table: 2588
epoch: 1000
next table: 2064
cur table: 2102
epoch: 1000
next table: 2657
cur table: 2702
epoch: 1000
next table: 2308
cur table: 2064
epoch: 1000
next table: 2548
cur table: 2657
epoch: 1000
next table: 2742
cur table: 2548
epoch: 1000
next table: 2441
cur table: 2308
epoch: 1000
next table: 2454
cur table: 2742
epoch: 1000
next table: 2047
cur table: 2441
Heartbeat CPU 0 instructions: 100000000 cycles: 246332686 heartbeat IPC: 0.217851 cumulative IPC: 0.220438 (Simulation time: 0 hr 26 min 58 sec) 
Finished CPU 0 instructions: 50000002 cycles: 226821743 cumulative IPC: 0.220437 (Simulation time: 0 hr 26 min 58 sec) 

ChampSim completed all CPUs

Region of Interest Statistics

CPU 0 cumulative IPC: 0.220437 instructions: 50000002 cycles: 226821743
ITLB TOTAL     ACCESS:    8266728  HIT:    8187604  MISS:      79124  HIT %:    99.0429  MISS %:   0.957138   MPKI: 1.58248
ITLB LOAD TRANSLATION ACCESS:    8266728  HIT:    8187604  MISS:      79124  HIT %:    99.0429  MISS %:   0.957138   MPKI: 1.58248
ITLB PREFETCH  REQUESTED:          0  ISSUED:          0  USEFUL:          0  USELESS:          0
ITLB USEFUL LOAD PREFETCHES:          0 PREFETCH ISSUED TO LOWER LEVEL:          0  ACCURACY: -nan
ITLB TIMELY PREFETCHES:          0 LATE PREFETCHES: 0 DROPPED PREFETCHES: 0
ITLB PREFETCHES SAME FILL-ORIGIN LEVEL: 0 DIFFERENT FILL-ORIGIN LEVEL: 0
ITLB AVERAGE MISS LATENCY: 9.79564 cycles
ITLB RQ	ACCESS:    9321910	FORWARD:          0	MERGED:    1031095	TO_CACHE:    8290815

Revised Interactions: positive negative neutral
ITLB_interactions 0 0 0 -nan -nan -nan
DTLB TOTAL     ACCESS:   19532006  HIT:   18577132  MISS:     954874  HIT %:    95.1112  MISS %:    4.88877   MPKI: 19.0975
DTLB LOAD TRANSLATION ACCESS:   19532006  HIT:   18577132  MISS:     954874  HIT %:    95.1112  MISS %:    4.88877   MPKI: 19.0975
DTLB PREFETCH  REQUESTED:          0  ISSUED:          0  USEFUL:          0  USELESS:          0
DTLB USEFUL LOAD PREFETCHES:          0 PREFETCH ISSUED TO LOWER LEVEL:          0  ACCURACY: -nan
DTLB TIMELY PREFETCHES:          0 LATE PREFETCHES: 0 DROPPED PREFETCHES: 0
DTLB PREFETCHES SAME FILL-ORIGIN LEVEL: 0 DIFFERENT FILL-ORIGIN LEVEL: 0
DTLB AVERAGE MISS LATENCY: 25.3017 cycles
DTLB RQ	ACCESS:   22004045	FORWARD:          0	MERGED:    2456652	TO_CACHE:   19547393

Revised Interactions: positive negative neutral
DTLB_interactions 0 0 0 -nan -nan -nan
STLB TOTAL     ACCESS:    1033998  HIT:     820477  MISS:     213521  HIT %:      79.35  MISS %:      20.65   MPKI: 4.27042
STLB LOAD TRANSLATION ACCESS:    1033998  HIT:     820477  MISS:     213521  HIT %:      79.35  MISS %:      20.65   MPKI: 4.27042
STLB PREFETCH  REQUESTED:          0  ISSUED:          0  USEFUL:          0  USELESS:          0
STLB USEFUL LOAD PREFETCHES:          0 PREFETCH ISSUED TO LOWER LEVEL:          0  ACCURACY: -nan
STLB TIMELY PREFETCHES:          0 LATE PREFETCHES: 0 DROPPED PREFETCHES: 0
STLB PREFETCHES SAME FILL-ORIGIN LEVEL: 0 DIFFERENT FILL-ORIGIN LEVEL: 0
STLB AVERAGE MISS LATENCY: 73.0906 cycles
STLB RQ	ACCESS:    1033998	FORWARD:          0	MERGED:          0	TO_CACHE:    1033998

Revised Interactions: positive negative neutral
STLB_interactions 0 0 0 -nan -nan -nan
STLB Hit, L1D data hit: 0
STLB Hit, L2C data hit: 0
STLB Hit, LLC data hit: 0
STLB Hit, LLC data miss: 0
STLB STLB hints to L2: 0
L1D TOTAL     ACCESS:   21719851  HIT:   20811657  MISS:     908194  HIT %:    95.8186  MISS %:     4.1814   MPKI: 18.1639
L1D LOAD      ACCESS:   12711182  HIT:   11924792  MISS:     786390  HIT %:    93.8134  MISS %:     6.1866   MPKI: 15.7278
L1D RFO       ACCESS:    9008669  HIT:    8886865  MISS:     121804  HIT %:    98.6479  MISS %:    1.35208   MPKI: 2.43608
L1D PREFETCH  REQUESTED:          0  ISSUED:          0  USEFUL:          0  USELESS:          0
L1D USEFUL LOAD PREFETCHES:          0 PREFETCH ISSUED TO LOWER LEVEL:          0  ACCURACY: -nan
L1D TIMELY PREFETCHES:          0 LATE PREFETCHES: 0 DROPPED PREFETCHES: 0
L1D PREFETCHES SAME FILL-ORIGIN LEVEL: 0 DIFFERENT FILL-ORIGIN LEVEL: 0
L1D AVERAGE MISS LATENCY: 112.532 cycles
L1D RQ	ACCESS:   16218956	FORWARD:          0	MERGED:    2794656	TO_CACHE:   12800794
L1D WQ	ACCESS:    9275633	FORWARD:     623506	MERGED:      72382	TO_CACHE:    9203251

Revised Interactions: positive negative neutral
L1D_interactions 0 0 0 -nan -nan -nan
L1D UNIQUE REGIONS ACCESSED: 0
L1D REGIONS CONFLICTS: 0
L1D Cross Page Prefetch Requests: 0
L1D Same Page Prefetch Requests: 0
L1D ROI Sum of L1D PQ occupancy: 0
L1D PREFETCHES PUSHED FROM L2C: 0
L1I TOTAL     ACCESS:    9315074  HIT:    9296082  MISS:      18992  HIT %:    99.7961  MISS %:   0.203885   MPKI: 0.37984
L1I LOAD      ACCESS:    9315074  HIT:    9296082  MISS:      18992  HIT %:    99.7961  MISS %:   0.203885   MPKI: 0.37984
L1I PREFETCH  REQUESTED:          0  ISSUED:          0  USEFUL:          0  USELESS:          0
L1I USEFUL LOAD PREFETCHES:          0 PREFETCH ISSUED TO LOWER LEVEL:          0  ACCURACY: -nan
L1I TIMELY PREFETCHES:          0 LATE PREFETCHES: 0 DROPPED PREFETCHES: 0
L1I PREFETCHES SAME FILL-ORIGIN LEVEL: 0 DIFFERENT FILL-ORIGIN LEVEL: 0
L1I AVERAGE MISS LATENCY: 24.2847 cycles
L1I RQ	ACCESS:   14346577	FORWARD:          0	MERGED:    5024667	TO_CACHE:    9321910

Revised Interactions: positive negative neutral
L1I_interactions 0 0 0 -nan -nan -nan
BTB TOTAL     ACCESS:    7957708  HIT:    7483992  MISS:     473716  HIT %:    94.0471  MISS %:    5.95292   MPKI: 9.47432
BTB BRANCH_DIRECT_JUMP	ACCESS:     567490  HIT:     567393  MISS:         97
BTB BRANCH_INDIRECT	ACCESS:     167849  HIT:     146264  MISS:      21585
BTB BRANCH_CONDITIONAL	ACCESS:    4253075  HIT:    4252666  MISS:        409
BTB BRANCH_DIRECT_CALL	ACCESS:     888050  HIT:     887842  MISS:        208
BTB BRANCH_INDIRECT_CALL	ACCESS:     596599  HIT:     594525  MISS:       2074
BTB BRANCH_RETURN	ACCESS:    1484645  HIT:    1035302  MISS:     449343
BTB BRANCH_OTHER ACCESS:          0  HIT:          0  MISS:          0

L2C TOTAL     ACCESS:    1749477  HIT:    1005193  MISS:     744284  HIT %:    57.4568  MISS %:    42.5432   MPKI: 14.8857
L2C LOAD      ACCESS:     805378  HIT:     256133  MISS:     549245  HIT %:    31.8028  MISS %:    68.1972   MPKI: 10.9849
L2C DATA LOAD MPKI: 10.9479
L2C INSTRUCTION LOAD MPKI: 0.03696
L2C RFO       ACCESS:     121802  HIT:      32812  MISS:      88990  HIT %:    26.9388  MISS %:    73.0612   MPKI: 1.7798
L2C PREFETCH  ACCESS:      68957  HIT:      68241  MISS:        716  HIT %:    98.9617  MISS %:    1.03833   MPKI: 0.01432
L2C DATA PREFETCH MPKI: 0.01432
L2C INSTRUCTION PREFETCH MPKI: 0
L2C WRITEBACK ACCESS:     451119  HIT:     445786  MISS:       5333  HIT %:    98.8178  MISS %:    1.18217   MPKI: 0.10666
L2C LOAD TRANSLATION ACCESS:     302221  HIT:     202221  MISS:     100000  HIT %:    66.9116  MISS %:    33.0884   MPKI: 2
L2C PREFETCH  REQUESTED:     366256  ISSUED:     366256  USEFUL:        398  USELESS:        317
L2C USEFUL LOAD PREFETCHES:        398 PREFETCH ISSUED TO LOWER LEVEL:     245353  ACCURACY: 0.162215
L2C TIMELY PREFETCHES:        398 LATE PREFETCHES: 263 DROPPED PREFETCHES: 0
L2C PREFETCHES SAME FILL-ORIGIN LEVEL: 979 DIFFERENT FILL-ORIGIN LEVEL: 244374
L2C AVERAGE MISS LATENCY: 131.581 cycles
L2C RQ	ACCESS:    1229407	FORWARD:          0	MERGED:          0	TO_CACHE:    1229401
L2C WQ	ACCESS:     451119	FORWARD:          6	MERGED:          0	TO_CACHE:     451119
L2C PQ	ACCESS:     366256	FORWARD:          0	MERGED:      11691	TO_CACHE:     354565

Revised Interactions: positive negative neutral
L2C_interactions 401 332 297 38.932 32.233 28.835
L2C Instructions Evicting Data 1542
L2C Translations Evicting Data 85741
L2C Data Evicting Data 550250
L2C Instructions Evicting Instructions 141
L2C Translations Evicting Instructions 191
L2C Data Evicting Instructions 1493
L2C Instructions Evicting Translations 165
L2C Translations Evicting Translations 14068
L2C Data Evicting Translations 85360
L2C Dense regions hint from L2: 0
PSCL5 TOTAL     ACCESS:     213521  HIT:     213521  MISS:          0  HIT %:        100  MISS %:          0   MPKI: 0
PSCL5 LOAD TRANSLATION ACCESS:     213521  HIT:     213521  MISS:          0  HIT %:        100  MISS %:          0   MPKI: 0
PSCL5 PREFETCH  REQUESTED:          0  ISSUED:          0  USEFUL:          0  USELESS:          0
PSCL5 USEFUL LOAD PREFETCHES:          0 PREFETCH ISSUED TO LOWER LEVEL:          0  ACCURACY: -nan
PSCL5 TIMELY PREFETCHES:          0 LATE PREFETCHES: 0 DROPPED PREFETCHES: 0
PSCL5 PREFETCHES SAME FILL-ORIGIN LEVEL: 0 DIFFERENT FILL-ORIGIN LEVEL: 0

Revised Interactions: positive negative neutral
PSCL5_interactions 0 0 0 -nan -nan -nan
PSCL4 TOTAL     ACCESS:     213521  HIT:     213521  MISS:          0  HIT %:        100  MISS %:          0   MPKI: 0
PSCL4 LOAD TRANSLATION ACCESS:     213521  HIT:     213521  MISS:          0  HIT %:        100  MISS %:          0   MPKI: 0
PSCL4 PREFETCH  REQUESTED:          0  ISSUED:          0  USEFUL:          0  USELESS:          0
PSCL4 USEFUL LOAD PREFETCHES:          0 PREFETCH ISSUED TO LOWER LEVEL:          0  ACCURACY: -nan
PSCL4 TIMELY PREFETCHES:          0 LATE PREFETCHES: 0 DROPPED PREFETCHES: 0
PSCL4 PREFETCHES SAME FILL-ORIGIN LEVEL: 0 DIFFERENT FILL-ORIGIN LEVEL: 0

Revised Interactions: positive negative neutral
PSCL4_interactions 0 0 0 -nan -nan -nan
PSCL3 TOTAL     ACCESS:     213521  HIT:     213521  MISS:          0  HIT %:        100  MISS %:          0   MPKI: 0
PSCL3 LOAD TRANSLATION ACCESS:     213521  HIT:     213521  MISS:          0  HIT %:        100  MISS %:          0   MPKI: 0
PSCL3 PREFETCH  REQUESTED:          0  ISSUED:          0  USEFUL:          0  USELESS:          0
PSCL3 USEFUL LOAD PREFETCHES:          0 PREFETCH ISSUED TO LOWER LEVEL:          0  ACCURACY: -nan
PSCL3 TIMELY PREFETCHES:          0 LATE PREFETCHES: 0 DROPPED PREFETCHES: 0
PSCL3 PREFETCHES SAME FILL-ORIGIN LEVEL: 0 DIFFERENT FILL-ORIGIN LEVEL: 0

Revised Interactions: positive negative neutral
PSCL3_interactions 0 0 0 -nan -nan -nan
PSCL2 TOTAL     ACCESS:     213521  HIT:     124821  MISS:      88700  HIT %:    58.4584  MISS %:    41.5416   MPKI: 1.774
PSCL2 LOAD TRANSLATION ACCESS:     213521  HIT:     124821  MISS:      88700  HIT %:    58.4584  MISS %:    41.5416   MPKI: 1.774
PSCL2 PREFETCH  REQUESTED:          0  ISSUED:          0  USEFUL:          0  USELESS:          0
PSCL2 USEFUL LOAD PREFETCHES:          0 PREFETCH ISSUED TO LOWER LEVEL:          0  ACCURACY: -nan
PSCL2 TIMELY PREFETCHES:          0 LATE PREFETCHES: 0 DROPPED PREFETCHES: 0
PSCL2 PREFETCHES SAME FILL-ORIGIN LEVEL: 0 DIFFERENT FILL-ORIGIN LEVEL: 0

Revised Interactions: positive negative neutral
PSCL2_interactions 0 0 0 -nan -nan -nan
LLC TOTAL     ACCESS:    1285997  HIT:     647809  MISS:     638188  HIT %:    50.3741  MISS %:    49.6259   MPKI: 12.7638
LLC LOAD      ACCESS:     548982  HIT:     178575  MISS:     370407  HIT %:    32.5284  MISS %:    67.4716   MPKI: 7.40814
LLC RFO       ACCESS:      88990  HIT:      36317  MISS:      52673  HIT %:    40.8102  MISS %:    59.1898   MPKI: 1.05346
LLC PREFETCH  ACCESS:     225359  HIT:      56170  MISS:     169189  HIT %:    24.9247  MISS %:    75.0753   MPKI: 3.38378
LLC WRITEBACK ACCESS:     322666  HIT:     311815  MISS:      10851  HIT %:    96.6371  MISS %:    3.36292   MPKI: 0.21702
LLC LOAD TRANSLATION ACCESS:     100000  HIT:      64932  MISS:      35068  HIT %:     64.932  MISS %:     35.068   MPKI: 0.70136
LLC PREFETCH  REQUESTED:          0  ISSUED:          0  USEFUL:      64407  USELESS:     105413
LLC USEFUL LOAD PREFETCHES:      64407 PREFETCH ISSUED TO LOWER LEVEL:     186318  ACCURACY: 34.5683
LLC TIMELY PREFETCHES:      64407 LATE PREFETCHES: 17129 DROPPED PREFETCHES: 0
LLC PREFETCHES SAME FILL-ORIGIN LEVEL: 185662 DIFFERENT FILL-ORIGIN LEVEL: 0
LLC AVERAGE MISS LATENCY: 162.957 cycles
LLC RQ	ACCESS:     737972	FORWARD:          0	MERGED:          0	TO_CACHE:     737972
LLC WQ	ACCESS:     322666	FORWARD:          1	MERGED:          0	TO_CACHE:     322666
LLC PQ	ACCESS:     245353	FORWARD:          0	MERGED:       2234	TO_CACHE:     243118

Revised Interactions: positive negative neutral
LLC_interactions 55885 112687 75641 22.8837 46.1429 30.9734
LLC Dense regions hint to LLC: 0

RAW hits: 651347
Loads Generated: 16870303
Loads sent to L1D: 16218956
Stores Generated: 9275634
Stores sent to L1D: 9275633
Major fault: 0 Minor fault: 46286
Allocated PAGES: 46286
 All Calls: 1578131
 Critical Calls: 1578131
------------------
Depth Distribution
------------------
depth 0: 0
depth 1: 743743
depth 2: 30159
depth 3: 339
depth 4: 0
depth 5: 0
depth 6: 0
depth 7: 0
depth 8: 0
depth 9: 0
depth 10: 0
depth 11: 0
depth 12: 0
depth 13: 0
depth 14: 0
depth 15: 0
depth 16: 0
depth 17: 0
depth 18: 0
depth 19: 0
depth 20: 0
depth 21: 0
depth 22: 0
depth 23: 0
depth 24: 0
depth 25: 0
depth 26: 0
depth 27: 0
depth 28: 0
depth 29: 0
Total: 774241
-----------------------------
-----------------------------
	Captured at Filter
-----------------------------
depth 0: 0
depth 1: 1463
depth 2: 44
depth 3: 0
depth 4: 0
depth 5: 0
depth 6: 0
depth 7: 0
depth 8: 0
depth 9: 0
depth 10: 0
depth 11: 0
depth 12: 0
depth 13: 0
depth 14: 0
depth 15: 0
depth 16: 0
depth 17: 0
depth 18: 0
depth 19: 0
depth 20: 0
depth 21: 0
depth 22: 0
depth 23: 0
depth 24: 0
depth 25: 0
depth 26: 0
depth 27: 0
depth 28: 0
depth 29: 0
-----------------------------
-----------------------------
		Lost at Page
-----------------------------
depth 0: 0
depth 1: 40583
depth 2: 2707
depth 3: 29
depth 4: 0
depth 5: 0
depth 6: 0
depth 7: 0
depth 8: 0
depth 9: 0
depth 10: 0
depth 11: 0
depth 12: 0
depth 13: 0
depth 14: 0
depth 15: 0
depth 16: 0
depth 17: 0
depth 18: 0
depth 19: 0
depth 20: 0
depth 21: 0
depth 22: 0
depth 23: 0
depth 24: 0
depth 25: 0
depth 26: 0
depth 27: 0
depth 28: 0
depth 29: 0
-----------------------------
-----------------------------
	Lost due to PQ Size
-----------------------------
0
-----------------------------
ST read accesses: 478368
ST write accesses: 308018
PT read accesses: 6654686
PT write accesses: 556262
FILTER read accesses: 1897728
FILTER write accesses: 759955
GHR read accesses: 2626277
GHR write accesses: 18119
GHR counter read accesses: 6142456
GHR counter write accesses: 791343
ST tag read accesses: 460212618
ST tag write accesses: 88873345

DRAM Statistics
 CHANNEL 0
 RQ ROW_BUFFER_HIT:      53086  ROW_BUFFER_MISS:     574249
 DBUS_CONGESTED:        104
 WQ ROW_BUFFER_HIT:      47093  ROW_BUFFER_MISS:     188821  FULL:          0

 AVG_CONGESTED_CYCLE: 4
 All warmup complete: 2
Channel 0 Bank busy for read cycles: 0
Channel 0 Bank busy for write cycles: 0
Channel 0
Rank 0
0banks busy for read cycles: 138658493
0banks busy for write cycles: 126569
1banks busy for read cycles: 38966288
1banks busy for write cycles: 18556702
2banks busy for read cycles: 12941839
2banks busy for write cycles: 6982484
3banks busy for read cycles: 4530093
3banks busy for write cycles: 2553837
4banks busy for read cycles: 1594518
4banks busy for write cycles: 858621
5banks busy for read cycles: 490579
5banks busy for write cycles: 250835
6banks busy for read cycles: 165266
6banks busy for write cycles: 57875
7banks busy for read cycles: 73286
7banks busy for write cycles: 12000
8banks busy for read cycles: 2042
8banks busy for write cycles: 417

CPU 0 Branch Prediction Accuracy: 95.7672% MPKI: 8.80588 Average ROB Occupancy at Mispredict: 29.2112
Branch types
NOT_BRANCH: 39597806 79.1956%
BRANCH_DIRECT_JUMP: 567490 1.13498%
BRANCH_INDIRECT: 167849 0.335698%
BRANCH_CONDITIONAL: 6697234 13.3945%
BRANCH_DIRECT_CALL: 888050 1.7761%
BRANCH_INDIRECT_CALL: 596599 1.1932%
BRANCH_RETURN: 1484645 2.96929%
BRANCH_OTHER: 0 0%

@sumon_overall_L1D         0         0         0         0         0         0         0
@Sumon_Early_by_class_L1D         0         0         0         0
@Sumon_Late_by_class_L1D         0         0         0         0

@Sumon_Early_by_cycle_L1D         0         0         0         0         0         0         0         0         0         0         0         0
@Sumon_Late_by_cycle_L1D         0         0         0         0         0         0
@Sumon_Early_stream_L1D         0         0         0         0         0         0         0         0         0         0         0         0
@Sumon_Early_CS_L1D         0         0         0         0         0         0         0         0         0         0         0         0
@Sumon_Early_CPLX_L1D         0         0         0         0         0         0         0         0         0         0         0         0
@Sumon_Late_stream_L1D         0         0         0         0         0         0
@Sumon_Late_CS_L1D         0         0         0         0         0         0
@Sumon_Late_CPLX_L1D         0         0         0         0         0         0
@sumon_overall_L2C       398       263         0       317       716    366256    366256
@Sumon_Early_by_class_L2C         0         0         0         0
@Sumon_Late_by_class_L2C         0         0         0         0

@Sumon_Early_by_cycle_L2C        42        22       120        45        16        23        92        17         2         1         2        16
@Sumon_Late_by_cycle_L2C         0        95        40        26       102         0
@Sumon_Early_stream_L2C         0         0         0         0         0         0         0         0         0         0         0         0
@Sumon_Early_CS_L2C         0         0         0         0         0         0         0         0         0         0         0         0
@Sumon_Early_CPLX_L2C         0         0         0         0         0         0         0         0         0         0         0         0
@Sumon_Late_stream_L2C         0         0         0         0         0         0
@Sumon_Late_CS_L2C         0         0         0         0         0         0
@Sumon_Late_CPLX_L2C         0         0         0         0         0         0
DRAM PAGES: 1048576
Allocated PAGES: 46286
