Initialize SIGNATURE TABLE
ST_SET: 1
ST_WAY: 256
ST_TAG_BIT: 16
ST_TAG_MASK: ffff

Initialize PATTERN TABLE
PT_SET: 512
PT_WAY: 4
SIG_DELTA_BIT: 7
C_SIG_BIT: 4
C_DELTA_BIT: 4

Initialize PREFETCH FILTER
FILTER_SET: 1024

*** ChampSim Multicore Out-of-Order Simulator ***

Warmup Instructions: 50000000
Simulation Instructions: 50000000
Number of CPUs: 1
LLC sets: 2048
LLC ways: 16
Off-chip DRAM Size: 4096 MB Channels: 1 Width: 64-bit Data Rate: 6400 MT/s
CPU 0 runs ../../biswa/SPEC2017Traces/621.wrf_s-6673B.champsimtrace.xz
.xz
CPU 0 Bimodal branch predictor
BTB has LRU replacement policy
ITLB has LRU replacement policy
DTLB has LRU replacement policy
STLB has LRU replacement policy
L1I has LRU replacement policy
L1D has LRU replacement policy
ST_WAYS: 256
PT_SETS: 512
Initialize DRRIP state for L2C
Initialize DRRIP state for LLC
epoch: 1000
next table: 2317
cur table: 11861
epoch: 1000
next table: 2273
cur table: 2317
epoch: 1000
next table: 2236
cur table: 2273
epoch: 1000
next table: 2149
cur table: 2236
epoch: 1000
next table: 2171
cur table: 2149
epoch: 1000
next table: 2204
cur table: 2171
epoch: 1000
next table: 2221
cur table: 2204
epoch: 1000
next table: 2238
cur table: 2221
epoch: 1000
next table: 2239
cur table: 2238
epoch: 1000
next table: 2237
cur table: 2239
epoch: 1000
next table: 2189
cur table: 2237
epoch: 1000
next table: 2171
cur table: 2189
epoch: 1000
next table: 2189
cur table: 2171
epoch: 1000
next table: 2206
cur table: 2189
epoch: 1000
next table: 2279
cur table: 2206
epoch: 1000
next table: 2228
cur table: 2279
epoch: 1000
next table: 2210
cur table: 2228
epoch: 1000
next table: 2115
cur table: 2210
epoch: 1000
next table: 2061
cur table: 2115
epoch: 1000
next table: 2014
cur table: 2061
epoch: 1000
next table: 2007
cur table: 2014
epoch: 1000
next table: 2010
cur table: 2007
epoch: 1000
next table: 2012
cur table: 2010
epoch: 1000
next table: 2011
cur table: 2012
epoch: 1000
next table: 1770
cur table: 14721
epoch: 1000
next table: 2006
cur table: 2011
epoch: 1000
next table: 1519
cur table: 1770
epoch: 1000
next table: 2012
cur table: 2006
epoch: 1000
next table: 1431
cur table: 1519
epoch: 1000
next table: 2002
cur table: 2012
epoch: 1000
next table: 1435
cur table: 1431
epoch: 1000
next table: 2014
cur table: 2002
epoch: 1000
next table: 1452
cur table: 1435
epoch: 1000
next table: 2011
cur table: 2014
epoch: 1000
next table: 1417
cur table: 1452
epoch: 1000
next table: 2005
cur table: 2011
epoch: 1000
next table: 1414
cur table: 1417
epoch: 1000
next table: 2012
cur table: 2005
epoch: 1000
next table: 1417
cur table: 1414
epoch: 1000
next table: 2005
cur table: 2012
epoch: 1000
next table: 1427
cur table: 1417
epoch: 1000
next table: 2011
cur table: 2005
epoch: 1000
next table: 1410
cur table: 1427
epoch: 1000
next table: 2007
cur table: 2011
epoch: 1000
next table: 1415
cur table: 1410
epoch: 1000
next table: 2011
cur table: 2007
epoch: 1000
next table: 1494
cur table: 1415
epoch: 1000
next table: 2002
cur table: 2011
epoch: 1000
next table: 2003
cur table: 2002
epoch: 1000
next table: 1546
cur table: 1494
epoch: 1000
next table: 2008
cur table: 2003
epoch: 1000
next table: 1565
cur table: 1546
epoch: 1000
next table: 2005
cur table: 2008
epoch: 1000
next table: 1504
cur table: 1565
epoch: 1000
next table: 2006
cur table: 2005
epoch: 1000
next table: 1541
cur table: 1504
epoch: 1000
next table: 2008
cur table: 2006
epoch: 1000
next table: 2005
cur table: 2008
epoch: 1000
next table: 1584
cur table: 1541
epoch: 1000
next table: 2000
cur table: 2005
epoch: 1000
next table: 1627
cur table: 1584
epoch: 1000
next table: 2013
cur table: 2000
epoch: 1000
next table: 1561
cur table: 1627
epoch: 1000
next table: 2008
cur table: 2013
epoch: 1000
next table: 1310
cur table: 1561
epoch: 1000
next table: 2009
cur table: 2008
epoch: 1000
next table: 1308
cur table: 1310
epoch: 1000
next table: 2004
cur table: 2009
epoch: 1000
next table: 1311
cur table: 1308
epoch: 1000
next table: 2013
cur table: 2004
epoch: 1000
next table: 1294
cur table: 1311
epoch: 1000
next table: 2005
cur table: 2013
epoch: 1000
next table: 1310
cur table: 1294
epoch: 1000
next table: 2006
cur table: 2005
epoch: 1000
next table: 1300
cur table: 1310
epoch: 1000
next table: 2012
cur table: 2006
epoch: 1000
next table: 1315
cur table: 1300
epoch: 1000
next table: 2012
cur table: 2012
epoch: 1000
next table: 1302
cur table: 1315
epoch: 1000
next table: 2005
cur table: 2012
epoch: 1000
next table: 1328
cur table: 1302
epoch: 1000
next table: 2012
cur table: 2005
epoch: 1000
next table: 1315
cur table: 1328
epoch: 1000
next table: 2009
cur table: 2012
epoch: 1000
next table: 1311
cur table: 1315
epoch: 1000
next table: 2006
cur table: 2009
epoch: 1000
next table: 1306
cur table: 1311
epoch: 1000
next table: 2014
cur table: 2006
epoch: 1000
next table: 1313
cur table: 1306
epoch: 1000
next table: 2005
cur table: 2014
epoch: 1000
next table: 1295
cur table: 1313
epoch: 1000
next table: 2006
cur table: 2005
epoch: 1000
next table: 1312
cur table: 1295
epoch: 1000
next table: 2010
cur table: 2006
epoch: 1000
next table: 1318
cur table: 1312
epoch: 1000
next table: 2006
cur table: 2010
epoch: 1000
next table: 1316
cur table: 1318
epoch: 1000
next table: 2010
cur table: 2006
epoch: 1000
next table: 1319
cur table: 1316
epoch: 1000
next table: 2008
cur table: 2010
epoch: 1000
next table: 1284
cur table: 1319
epoch: 1000
next table: 2011
cur table: 2008
epoch: 1000
next table: 1316
cur table: 1284
epoch: 1000
next table: 2009
cur table: 2011
epoch: 1000
next table: 1325
cur table: 1316
epoch: 1000
next table: 2008
cur table: 2009
epoch: 1000
next table: 1305
cur table: 1325
epoch: 1000
next table: 2008
cur table: 2008
epoch: 1000
next table: 1326
cur table: 1305
epoch: 1000
next table: 2008
cur table: 2008
epoch: 1000
next table: 1317
cur table: 1326
epoch: 1000
next table: 1304
cur table: 1317
epoch: 1000
next table: 2012
cur table: 2008
epoch: 1000
next table: 1320
cur table: 1304
epoch: 1000
next table: 2009
cur table: 2012
epoch: 1000
next table: 1341
cur table: 1320
epoch: 1000
next table: 2003
cur table: 2009
epoch: 1000
next table: 1328
cur table: 1341
epoch: 1000
next table: 2080
cur table: 2003
epoch: 1000
next table: 1334
cur table: 1328
epoch: 1000
next table: 2082
cur table: 2080
epoch: 1000
next table: 1329
cur table: 1334
epoch: 1000
next table: 2073
cur table: 2082
Heartbeat CPU 0 instructions: 10000002 cycles: 3561901 heartbeat IPC: 2.80749 cumulative IPC: 2.80749 (Simulation time: 0 hr 2 min 48 sec) 
epoch: 1000
next table: 1350
cur table: 1329
epoch: 1000
next table: 2083
cur table: 2073
epoch: 1000
next table: 1355
cur table: 1350
epoch: 1000
next table: 2061
cur table: 2083
epoch: 1000
next table: 1336
cur table: 1355
epoch: 1000
next table: 2087
cur table: 2061
epoch: 1000
next table: 1326
cur table: 1336
epoch: 1000
next table: 2093
cur table: 2087
epoch: 1000
next table: 1345
cur table: 1326
epoch: 1000
next table: 2082
cur table: 2093
epoch: 1000
next table: 1330
cur table: 1345
epoch: 1000
next table: 2085
cur table: 2082
epoch: 1000
next table: 1333
cur table: 1330
epoch: 1000
next table: 2065
cur table: 2085
epoch: 1000
next table: 1355
cur table: 1333
epoch: 1000
next table: 2088
cur table: 2065
epoch: 1000
next table: 1363
cur table: 1355
epoch: 1000
next table: 2081
cur table: 2088
epoch: 1000
next table: 1324
cur table: 1363
epoch: 1000
next table: 2082
cur table: 2081
epoch: 1000
next table: 1339
cur table: 1324
epoch: 1000
next table: 2087
cur table: 2082
epoch: 1000
next table: 1337
cur table: 1339
epoch: 1000
next table: 2084
cur table: 2087
epoch: 1000
next table: 1330
cur table: 1337
epoch: 1000
next table: 2053
cur table: 2084
epoch: 1000
next table: 1342
cur table: 1330
epoch: 1000
next table: 2092
cur table: 2053
epoch: 1000
next table: 1361
cur table: 1342
epoch: 1000
next table: 2081
cur table: 2092
epoch: 1000
next table: 1342
cur table: 1361
epoch: 1000
next table: 2073
cur table: 2081
epoch: 1000
next table: 1359
cur table: 1342
epoch: 1000
next table: 2089
cur table: 2073
epoch: 1000
next table: 1328
cur table: 1359
epoch: 1000
next table: 2067
cur table: 2089
epoch: 1000
next table: 1334
cur table: 1328
epoch: 1000
next table: 2068
cur table: 2067
epoch: 1000
next table: 1344
cur table: 1334
epoch: 1000
next table: 2100
cur table: 2068
epoch: 1000
next table: 1350
cur table: 1344
epoch: 1000
next table: 2089
cur table: 2100
epoch: 1000
next table: 1339
cur table: 1350
epoch: 1000
next table: 2070
cur table: 2089
epoch: 1000
next table: 1333
cur table: 1339
epoch: 1000
next table: 2082
cur table: 2070
epoch: 1000
next table: 1341
cur table: 1333
epoch: 1000
next table: 2070
cur table: 2082
epoch: 1000
next table: 1415
cur table: 1341
epoch: 1000
next table: 2034
cur table: 2070
epoch: 1000
next table: 2462
cur table: 2034
epoch: 1000
next table: 1599
cur table: 1415
epoch: 1000
next table: 2543
cur table: 2462
epoch: 1000
next table: 1587
cur table: 1599
epoch: 1000
next table: 2548
cur table: 2543
epoch: 1000
next table: 2548
cur table: 2548
epoch: 1000
next table: 1613
cur table: 1587
epoch: 1000
next table: 2565
cur table: 2548
epoch: 1000
next table: 1554
cur table: 1613
epoch: 1000
next table: 2554
cur table: 2565
epoch: 1000
next table: 2581
cur table: 2554
epoch: 1000
next table: 1578
cur table: 1554
epoch: 1000
next table: 2546
cur table: 2581
epoch: 1000
next table: 1543
cur table: 1578
epoch: 1000
next table: 2531
cur table: 2546
epoch: 1000
next table: 2556
cur table: 2531
epoch: 1000
next table: 1541
cur table: 1543
epoch: 1000
next table: 2569
cur table: 2556
epoch: 1000
next table: 1570
cur table: 1541
epoch: 1000
next table: 2549
cur table: 2569
epoch: 1000
next table: 2574
cur table: 2549
epoch: 1000
next table: 1600
cur table: 1570
epoch: 1000
next table: 2564
cur table: 2574
epoch: 1000
next table: 1567
cur table: 1600
epoch: 1000
next table: 2523
cur table: 2564
epoch: 1000
next table: 2558
cur table: 2523
epoch: 1000
next table: 1579
cur table: 1567
epoch: 1000
next table: 2576
cur table: 2558
epoch: 1000
next table: 1562
cur table: 1579
epoch: 1000
next table: 2552
cur table: 2576
epoch: 1000
next table: 2551
cur table: 2552
epoch: 1000
next table: 1587
cur table: 1562
epoch: 1000
next table: 2567
cur table: 2551
epoch: 1000
next table: 1589
cur table: 1587
epoch: 1000
next table: 2540
cur table: 2567
epoch: 1000
next table: 1553
cur table: 1589
epoch: 1000
next table: 2565
cur table: 2540
epoch: 1000
next table: 2567
cur table: 2565
epoch: 1000
next table: 1540
cur table: 1553
epoch: 1000
next table: 2560
cur table: 2567
epoch: 1000
next table: 1545
cur table: 1540
epoch: 1000
next table: 2556
cur table: 2560
epoch: 1000
next table: 2542
cur table: 2556
epoch: 1000
next table: 1581
cur table: 1545
epoch: 1000
next table: 2481
cur table: 2542
epoch: 1000
next table: 1514
cur table: 1581
epoch: 1000
next table: 2016
cur table: 2481
epoch: 1000
next table: 2001
cur table: 2016
epoch: 1000
next table: 1525
cur table: 1514
epoch: 1000
next table: 2004
cur table: 2001
epoch: 1000
next table: 1547
cur table: 1525
epoch: 1000
next table: 1999
cur table: 2004
epoch: 1000
next table: 2008
cur table: 1999
epoch: 1000
next table: 1603
cur table: 1547
epoch: 1000
next table: 2030
cur table: 2008
epoch: 1000
next table: 2018
cur table: 2030
epoch: 1000
next table: 1534
cur table: 1603
epoch: 1000
next table: 2008
cur table: 2018
epoch: 1000
next table: 1547
cur table: 1534
epoch: 1000
next table: 2005
cur table: 2008
epoch: 1000
next table: 2003
cur table: 2005
epoch: 1000
next table: 1614
cur table: 1547
epoch: 1000
next table: 2007
cur table: 2003
epoch: 1000
next table: 2020
cur table: 2007
epoch: 1000
next table: 1552
cur table: 1614
epoch: 1000
next table: 2010
cur table: 2020
epoch: 1000
next table: 1527
cur table: 1552
epoch: 1000
next table: 2009
cur table: 2010
epoch: 1000
next table: 2009
cur table: 2009
epoch: 1000
next table: 1612
cur table: 1527
epoch: 1000
next table: 2002
cur table: 2009
epoch: 1000
next table: 2014
cur table: 2002
epoch: 1000
next table: 1577
cur table: 1612
epoch: 1000
next table: 2018
cur table: 2014
epoch: 1000
next table: 2003
cur table: 2018
epoch: 1000
next table: 1623
cur table: 1577
epoch: 1000
next table: 2007
cur table: 2003
epoch: 1000
next table: 1538
cur table: 1623
epoch: 1000
next table: 2007
cur table: 2007
epoch: 1000
next table: 2004
cur table: 2007
epoch: 1000
next table: 1554
cur table: 1538
epoch: 1000
next table: 2023
cur table: 2004
epoch: 1000
next table: 1550
cur table: 1554
epoch: 1000
next table: 1995
cur table: 2023
epoch: 1000
next table: 2009
cur table: 1995
epoch: 1000
next table: 1541
cur table: 1550
epoch: 1000
next table: 2011
cur table: 2009
epoch: 1000
next table: 2006
cur table: 2011
epoch: 1000
next table: 1558
cur table: 1541
epoch: 1000
next table: 2002
cur table: 2006
epoch: 1000
next table: 1494
cur table: 1558
epoch: 1000
next table: 2004
cur table: 2002
epoch: 1000
next table: 1513
cur table: 1494
epoch: 1000
next table: 2004
cur table: 2004
epoch: 1000
next table: 1509
cur table: 1513
epoch: 1000
next table: 2002
cur table: 2004
epoch: 1000
next table: 1516
cur table: 1509
epoch: 1000
next table: 1523
cur table: 1516
epoch: 1000
next table: 2008
cur table: 2002
epoch: 1000
next table: 1502
cur table: 1523
epoch: 1000
next table: 2001
cur table: 2008
epoch: 1000
next table: 1505
cur table: 1502
epoch: 1000
next table: 2001
cur table: 2001
epoch: 1000
next table: 1505
cur table: 1505
epoch: 1000
next table: 2001
cur table: 2001
epoch: 1000
next table: 1513
cur table: 1505
epoch: 1000
next table: 2007
cur table: 2001
epoch: 1000
next table: 1510
cur table: 1513
epoch: 1000
next table: 2008
cur table: 2007
epoch: 1000
next table: 1504
cur table: 1510
epoch: 1000
next table: 2003
cur table: 2008
epoch: 1000
next table: 1514
cur table: 1504
epoch: 1000
next table: 2001
cur table: 2003
epoch: 1000
next table: 1514
cur table: 1514
epoch: 1000
next table: 2006
cur table: 2001
epoch: 1000
next table: 1503
cur table: 1514
epoch: 1000
next table: 2001
cur table: 2006
epoch: 1000
next table: 1523
cur table: 1503
epoch: 1000
next table: 2011
cur table: 2001
epoch: 1000
next table: 1494
cur table: 1523
epoch: 1000
next table: 1999
cur table: 2011
epoch: 1000
next table: 1514
cur table: 1494
epoch: 1000
next table: 2002
cur table: 1999
epoch: 1000
next table: 1502
cur table: 1514
epoch: 1000
next table: 2006
cur table: 2002
epoch: 1000
next table: 1500
cur table: 1502
epoch: 1000
next table: 1998
cur table: 2006
epoch: 1000
next table: 1518
cur table: 1500
epoch: 1000
next table: 2010
cur table: 1998
epoch: 1000
next table: 1496
cur table: 1518
epoch: 1000
next table: 2001
cur table: 2010
epoch: 1000
next table: 1506
cur table: 1496
epoch: 1000
next table: 2006
cur table: 2001
epoch: 1000
next table: 1505
cur table: 1506
epoch: 1000
next table: 2003
cur table: 2006
epoch: 1000
next table: 1520
cur table: 1505
epoch: 1000
next table: 2002
cur table: 2003
epoch: 1000
next table: 1517
cur table: 1520
epoch: 1000
next table: 2005
cur table: 2002
epoch: 1000
next table: 1494
cur table: 1517
epoch: 1000
next table: 2003
cur table: 2005
epoch: 1000
next table: 1992
cur table: 2003
epoch: 1000
next table: 2652
cur table: 1494
epoch: 1000
next table: 3865
cur table: 1992
epoch: 1000
next table: 1751
cur table: 2652
epoch: 1000
next table: 2149
cur table: 3865
epoch: 1000
next table: 1538
cur table: 1751
epoch: 1000
next table: 2244
cur table: 2149
epoch: 1000
next table: 2213
cur table: 2244
epoch: 1000
next table: 1542
cur table: 1538
epoch: 1000
next table: 2232
cur table: 2213
epoch: 1000
next table: 1521
cur table: 1542
epoch: 1000
next table: 2211
cur table: 2232
epoch: 1000
next table: 1528
cur table: 1521
epoch: 1000
next table: 2195
cur table: 2211
epoch: 1000
next table: 2199
cur table: 2195
epoch: 1000
next table: 1508
cur table: 1528
epoch: 1000
next table: 2199
cur table: 2199
epoch: 1000
next table: 1508
cur table: 1508
epoch: 1000
next table: 2196
cur table: 2199
epoch: 1000
next table: 1523
cur table: 1508
epoch: 1000
next table: 2187
cur table: 2196
epoch: 1000
next table: 2181
cur table: 2187
epoch: 1000
next table: 1524
cur table: 1523
epoch: 1000
next table: 2197
cur table: 2181
epoch: 1000
next table: 1483
cur table: 1524
epoch: 1000
next table: 2192
cur table: 2197
epoch: 1000
next table: 1517
cur table: 1483
epoch: 1000
next table: 2194
cur table: 2192
epoch: 1000
next table: 2193
cur table: 2194
epoch: 1000
next table: 1534
cur table: 1517
epoch: 1000
next table: 2191
cur table: 2193
epoch: 1000
next table: 1467
cur table: 1534
epoch: 1000
next table: 2187
cur table: 2191
epoch: 1000
next table: 1509
cur table: 1467
epoch: 1000
next table: 2196
cur table: 2187
epoch: 1000
next table: 1438
cur table: 1509
epoch: 1000
next table: 2191
cur table: 2196
epoch: 1000
next table: 1492
cur table: 1438
epoch: 1000
next table: 2193
cur table: 2191
epoch: 1000
next table: 2187
cur table: 2193
epoch: 1000
next table: 1485
cur table: 1492
epoch: 1000
next table: 2192
cur table: 2187
epoch: 1000
next table: 1491
cur table: 1485
epoch: 1000
next table: 2190
cur table: 2192
epoch: 1000
next table: 1476
cur table: 1491
epoch: 1000
next table: 2187
cur table: 2190
epoch: 1000
next table: 1474
cur table: 1476
epoch: 1000
next table: 2191
cur table: 2187
epoch: 1000
next table: 1448
cur table: 1474
epoch: 1000
next table: 2188
cur table: 2191
epoch: 1000
next table: 2188
cur table: 2188
epoch: 1000
next table: 1472
cur table: 1448
epoch: 1000
next table: 2187
cur table: 2188
epoch: 1000
next table: 1452
cur table: 1472
epoch: 1000
next table: 2183
cur table: 2187
epoch: 1000
next table: 1486
cur table: 1452
epoch: 1000
next table: 2189
cur table: 2183
epoch: 1000
next table: 1432
cur table: 1486
epoch: 1000
next table: 2189
cur table: 2189
epoch: 1000
next table: 1407
cur table: 1432
epoch: 1000
next table: 2193
cur table: 2189
epoch: 1000
next table: 1424
cur table: 1407
epoch: 1000
next table: 2187
cur table: 2193
epoch: 1000
next table: 1433
cur table: 1424
epoch: 1000
next table: 2200
cur table: 2187
epoch: 1000
next table: 1375
cur table: 1433
epoch: 1000
next table: 2184
cur table: 2200
epoch: 1000
next table: 2186
cur table: 2184
epoch: 1000
next table: 1454
cur table: 1375
epoch: 1000
next table: 2188
cur table: 2186
epoch: 1000
next table: 1421
cur table: 1454
epoch: 1000
next table: 2194
cur table: 2188
epoch: 1000
next table: 1383
cur table: 1421
epoch: 1000
next table: 2194
cur table: 2194
epoch: 1000
next table: 1387
cur table: 1383
epoch: 1000
next table: 2189
cur table: 2194
epoch: 1000
next table: 1409
cur table: 1387
epoch: 1000
next table: 2196
cur table: 2189
epoch: 1000
next table: 1378
cur table: 1409
epoch: 1000
next table: 2186
cur table: 2196
epoch: 1000
next table: 1423
cur table: 1378
epoch: 1000
next table: 2000
cur table: 2186
epoch: 1000
next table: 1418
cur table: 1423
epoch: 1000
next table: 2477
cur table: 2000
epoch: 1000
next table: 1437
cur table: 1418
epoch: 1000
next table: 2588
cur table: 2477
epoch: 1000
next table: 1447
cur table: 1437
epoch: 1000
next table: 2577
cur table: 2588
epoch: 1000
next table: 1450
cur table: 1447
epoch: 1000
next table: 2577
cur table: 2577
epoch: 1000
next table: 1392
cur table: 1450
epoch: 1000
next table: 2575
cur table: 2577
epoch: 1000
next table: 1462
cur table: 1392
epoch: 1000
next table: 2579
cur table: 2575
epoch: 1000
next table: 1409
cur table: 1462
epoch: 1000
next table: 2569
cur table: 2579
epoch: 1000
next table: 1432
cur table: 1409
epoch: 1000
next table: 2580
cur table: 2569
epoch: 1000
next table: 1430
cur table: 1432
epoch: 1000
next table: 2578
cur table: 2580
epoch: 1000
next table: 1435
cur table: 1430
epoch: 1000
next table: 2565
cur table: 2578
epoch: 1000
next table: 1422
cur table: 1435
epoch: 1000
next table: 2543
cur table: 2565
epoch: 1000
next table: 1462
cur table: 1422
epoch: 1000
next table: 2581
cur table: 2543
epoch: 1000
next table: 2579
cur table: 2581
epoch: 1000
next table: 1437
cur table: 1462
epoch: 1000
next table: 2579
cur table: 2579
epoch: 1000
next table: 1421
cur table: 1437
epoch: 1000
next table: 2578
cur table: 2579
epoch: 1000
next table: 1419
cur table: 1421
epoch: 1000
next table: 2573
cur table: 2578
epoch: 1000
next table: 1425
cur table: 1419
epoch: 1000
next table: 2579
cur table: 2573
epoch: 1000
next table: 1450
cur table: 1425
epoch: 1000
next table: 2583
cur table: 2579
epoch: 1000
next table: 1460
cur table: 1450
epoch: 1000
next table: 2579
cur table: 2583
epoch: 1000
next table: 1412
cur table: 1460
epoch: 1000
next table: 2577
cur table: 2579
epoch: 1000
next table: 1444
cur table: 1412
epoch: 1000
next table: 2578
cur table: 2577
epoch: 1000
next table: 1405
cur table: 1444
epoch: 1000
next table: 2576
cur table: 2578
epoch: 1000
next table: 1400
cur table: 1405
epoch: 1000
next table: 2577
cur table: 2576
epoch: 1000
next table: 1444
cur table: 1400
epoch: 1000
next table: 2589
cur table: 2577
epoch: 1000
next table: 1395
cur table: 1444
epoch: 1000
next table: 2572
cur table: 2589
epoch: 1000
next table: 1464
cur table: 1395
epoch: 1000
next table: 2577
cur table: 2572
epoch: 1000
next table: 1454
cur table: 1464
Heartbeat CPU 0 instructions: 20000003 cycles: 6471790 heartbeat IPC: 3.43656 cumulative IPC: 3.09034 (Simulation time: 0 hr 5 min 20 sec) 
epoch: 1000
next table: 2586
cur table: 2577
epoch: 1000
next table: 1429
cur table: 1454
epoch: 1000
next table: 2586
cur table: 2586
epoch: 1000
next table: 1447
cur table: 1429
epoch: 1000
next table: 2576
cur table: 2586
epoch: 1000
next table: 1422
cur table: 1447
epoch: 1000
next table: 2583
cur table: 2576
epoch: 1000
next table: 1437
cur table: 1422
epoch: 1000
next table: 2584
cur table: 2583
epoch: 1000
next table: 1447
cur table: 1437
epoch: 1000
next table: 2580
cur table: 2584
epoch: 1000
next table: 2582
cur table: 2580
epoch: 1000
next table: 1493
cur table: 1447
epoch: 1000
next table: 2573
cur table: 2582
epoch: 1000
next table: 1452
cur table: 1493
epoch: 1000
next table: 2570
cur table: 2573
epoch: 1000
next table: 1420
cur table: 1452
epoch: 1000
next table: 2574
cur table: 2570
epoch: 1000
next table: 1468
cur table: 1420
epoch: 1000
next table: 2581
cur table: 2574
epoch: 1000
next table: 1487
cur table: 1468
epoch: 1000
next table: 2586
cur table: 2581
epoch: 1000
next table: 1489
cur table: 1487
epoch: 1000
next table: 2576
cur table: 2586
epoch: 1000
next table: 1463
cur table: 1489
epoch: 1000
next table: 2593
cur table: 2576
epoch: 1000
next table: 1426
cur table: 1463
epoch: 1000
next table: 2584
cur table: 2593
epoch: 1000
next table: 1468
cur table: 1426
epoch: 1000
next table: 2455
cur table: 2584
epoch: 1000
next table: 2057
cur table: 2455
epoch: 1000
next table: 1461
cur table: 1468
epoch: 1000
next table: 2386
cur table: 2057
epoch: 1000
next table: 1417
cur table: 1461
epoch: 1000
next table: 2360
cur table: 2386
epoch: 1000
next table: 1453
cur table: 1417
epoch: 1000
next table: 2395
cur table: 2360
epoch: 1000
next table: 1449
cur table: 1453
epoch: 1000
next table: 2386
cur table: 2395
epoch: 1000
next table: 1421
cur table: 1449
epoch: 1000
next table: 2392
cur table: 2386
epoch: 1000
next table: 1448
cur table: 1421
epoch: 1000
next table: 2384
cur table: 2392
epoch: 1000
next table: 1425
cur table: 1448
epoch: 1000
next table: 2382
cur table: 2384
epoch: 1000
next table: 1469
cur table: 1425
epoch: 1000
next table: 2395
cur table: 2382
epoch: 1000
next table: 1418
cur table: 1469
epoch: 1000
next table: 2375
cur table: 2395
epoch: 1000
next table: 1474
cur table: 1418
epoch: 1000
next table: 2395
cur table: 2375
epoch: 1000
next table: 1452
cur table: 1474
epoch: 1000
next table: 2389
cur table: 2395
epoch: 1000
next table: 1417
cur table: 1452
epoch: 1000
next table: 2385
cur table: 2389
epoch: 1000
next table: 1433
cur table: 1417
epoch: 1000
next table: 2393
cur table: 2385
epoch: 1000
next table: 1417
cur table: 1433
epoch: 1000
next table: 2398
cur table: 2393
epoch: 1000
next table: 1438
cur table: 1417
epoch: 1000
next table: 2397
cur table: 2398
epoch: 1000
next table: 1434
cur table: 1438
epoch: 1000
next table: 2400
cur table: 2397
epoch: 1000
next table: 1430
cur table: 1434
epoch: 1000
next table: 2392
cur table: 2400
epoch: 1000
next table: 1425
cur table: 1430
epoch: 1000
next table: 2392
cur table: 2392
epoch: 1000
next table: 1475
cur table: 1425
epoch: 1000
next table: 2381
cur table: 2392
epoch: 1000
next table: 1436
cur table: 1475
epoch: 1000
next table: 2397
cur table: 2381
epoch: 1000
next table: 1471
cur table: 1436
epoch: 1000
next table: 2391
cur table: 2397
epoch: 1000
next table: 2396
cur table: 2391
epoch: 1000
next table: 1443
cur table: 1471
epoch: 1000
next table: 2395
cur table: 2396
epoch: 1000
next table: 1441
cur table: 1443
epoch: 1000
next table: 2390
cur table: 2395
epoch: 1000
next table: 1440
cur table: 1441
epoch: 1000
next table: 2399
cur table: 2390
epoch: 1000
next table: 1448
cur table: 1440
epoch: 1000
next table: 2396
cur table: 2399
epoch: 1000
next table: 1436
cur table: 1448
epoch: 1000
next table: 2398
cur table: 2396
epoch: 1000
next table: 1435
cur table: 1436
epoch: 1000
next table: 2390
cur table: 2398
epoch: 1000
next table: 1457
cur table: 1435
epoch: 1000
next table: 2394
cur table: 2390
epoch: 1000
next table: 1427
cur table: 1457
epoch: 1000
next table: 2395
cur table: 2394
epoch: 1000
next table: 1445
cur table: 1427
epoch: 1000
next table: 2407
cur table: 2395
epoch: 1000
next table: 1427
cur table: 1445
epoch: 1000
next table: 2380
cur table: 2407
epoch: 1000
next table: 1462
cur table: 1427
epoch: 1000
next table: 2385
cur table: 2380
epoch: 1000
next table: 1414
cur table: 1462
epoch: 1000
next table: 2383
cur table: 2385
epoch: 1000
next table: 1414
cur table: 1414
epoch: 1000
next table: 2389
cur table: 2383
epoch: 1000
next table: 1439
cur table: 1414
epoch: 1000
next table: 2397
cur table: 2389
epoch: 1000
next table: 1434
cur table: 1439
epoch: 1000
next table: 2398
cur table: 2397
epoch: 1000
next table: 1463
cur table: 1434
epoch: 1000
next table: 2394
cur table: 2398
epoch: 1000
next table: 1401
cur table: 1463
epoch: 1000
next table: 2405
cur table: 2394
epoch: 1000
next table: 1419
cur table: 1401
epoch: 1000
next table: 2397
cur table: 2405
epoch: 1000
next table: 1420
cur table: 1419
epoch: 1000
next table: 2386
cur table: 2397
epoch: 1000
next table: 1468
cur table: 1420
epoch: 1000
next table: 2384
cur table: 2386
epoch: 1000
next table: 1532
cur table: 1468
epoch: 1000
next table: 2220
cur table: 2384
epoch: 1000
next table: 1298
cur table: 1532
epoch: 1000
next table: 2002
cur table: 2220
epoch: 1000
next table: 1298
cur table: 1298
epoch: 1000
next table: 2005
cur table: 2002
epoch: 1000
next table: 1292
cur table: 1298
epoch: 1000
next table: 1999
cur table: 2005
epoch: 1000
next table: 1288
cur table: 1292
epoch: 1000
next table: 2001
cur table: 1999
epoch: 1000
next table: 1299
cur table: 1288
epoch: 1000
next table: 2002
cur table: 2001
epoch: 1000
next table: 1290
cur table: 1299
epoch: 1000
next table: 2001
cur table: 2002
epoch: 1000
next table: 1290
cur table: 1290
epoch: 1000
next table: 2003
cur table: 2001
epoch: 1000
next table: 1301
cur table: 1290
epoch: 1000
next table: 2000
cur table: 2003
epoch: 1000
next table: 1286
cur table: 1301
epoch: 1000
next table: 2002
cur table: 2000
epoch: 1000
next table: 1291
cur table: 1286
epoch: 1000
next table: 2002
cur table: 2002
epoch: 1000
next table: 1300
cur table: 1291
epoch: 1000
next table: 2002
cur table: 2002
epoch: 1000
next table: 1292
cur table: 1300
epoch: 1000
next table: 2002
cur table: 2002
epoch: 1000
next table: 1285
cur table: 1292
epoch: 1000
next table: 2003
cur table: 2002
epoch: 1000
next table: 1308
cur table: 1285
epoch: 1000
next table: 2006
cur table: 2003
epoch: 1000
next table: 1292
cur table: 1308
epoch: 1000
next table: 2005
cur table: 2006
epoch: 1000
next table: 1289
cur table: 1292
epoch: 1000
next table: 2004
cur table: 2005
epoch: 1000
next table: 1297
cur table: 1289
epoch: 1000
next table: 2004
cur table: 2004
epoch: 1000
next table: 1281
cur table: 1297
epoch: 1000
next table: 2003
cur table: 2004
epoch: 1000
next table: 1302
cur table: 1281
epoch: 1000
next table: 2002
cur table: 2003
epoch: 1000
next table: 1303
cur table: 1302
epoch: 1000
next table: 2005
cur table: 2002
epoch: 1000
next table: 1294
cur table: 1303
epoch: 1000
next table: 2000
cur table: 2005
epoch: 1000
next table: 1290
cur table: 1294
epoch: 1000
next table: 2004
cur table: 2000
epoch: 1000
next table: 1307
cur table: 1290
epoch: 1000
next table: 2003
cur table: 2004
epoch: 1000
next table: 1304
cur table: 1307
epoch: 1000
next table: 2002
cur table: 2003
epoch: 1000
next table: 1281
cur table: 1304
epoch: 1000
next table: 2004
cur table: 2002
epoch: 1000
next table: 1299
cur table: 1281
epoch: 1000
next table: 2001
cur table: 2004
epoch: 1000
next table: 1298
cur table: 1299
epoch: 1000
next table: 2002
cur table: 2001
epoch: 1000
next table: 1302
cur table: 1298
epoch: 1000
next table: 2003
cur table: 2002
epoch: 1000
next table: 1309
cur table: 1302
epoch: 1000
next table: 2000
cur table: 2003
epoch: 1000
next table: 1286
cur table: 1309
epoch: 1000
next table: 2006
cur table: 2000
epoch: 1000
next table: 1295
cur table: 1286
epoch: 1000
next table: 1998
cur table: 2006
epoch: 1000
next table: 1302
cur table: 1295
epoch: 1000
next table: 2002
cur table: 1998
epoch: 1000
next table: 1281
cur table: 1302
epoch: 1000
next table: 1295
cur table: 1281
epoch: 1000
next table: 2006
cur table: 2002
epoch: 1000
next table: 1308
cur table: 1295
epoch: 1000
next table: 2002
cur table: 2006
epoch: 1000
next table: 1290
cur table: 1308
epoch: 1000
next table: 2007
cur table: 2002
epoch: 1000
next table: 1280
cur table: 1290
epoch: 1000
next table: 2003
cur table: 2007
epoch: 1000
next table: 1275
cur table: 1280
epoch: 1000
next table: 2012
cur table: 2003
epoch: 1000
next table: 1272
cur table: 1275
epoch: 1000
next table: 2010
cur table: 2012
epoch: 1000
next table: 1283
cur table: 1272
epoch: 1000
next table: 2010
cur table: 2010
epoch: 1000
next table: 1269
cur table: 1283
epoch: 1000
next table: 2010
cur table: 2010
epoch: 1000
next table: 1282
cur table: 1269
epoch: 1000
next table: 2010
cur table: 2010
epoch: 1000
next table: 1273
cur table: 1282
epoch: 1000
next table: 2012
cur table: 2010
epoch: 1000
next table: 1279
cur table: 1273
epoch: 1000
next table: 2011
cur table: 2012
epoch: 1000
next table: 1274
cur table: 1279
epoch: 1000
next table: 2007
cur table: 2011
epoch: 1000
next table: 1278
cur table: 1274
epoch: 1000
next table: 2011
cur table: 2007
epoch: 1000
next table: 1272
cur table: 1278
epoch: 1000
next table: 2010
cur table: 2011
epoch: 1000
next table: 1280
cur table: 1272
epoch: 1000
next table: 2010
cur table: 2010
epoch: 1000
next table: 1274
cur table: 1280
epoch: 1000
next table: 2011
cur table: 2010
epoch: 1000
next table: 1278
cur table: 1274
epoch: 1000
next table: 2009
cur table: 2011
epoch: 1000
next table: 1278
cur table: 1278
epoch: 1000
next table: 2008
cur table: 2009
epoch: 1000
next table: 1275
cur table: 1278
epoch: 1000
next table: 2011
cur table: 2008
epoch: 1000
next table: 1274
cur table: 1275
epoch: 1000
next table: 2011
cur table: 2011
epoch: 1000
next table: 1281
cur table: 1274
epoch: 1000
next table: 2012
cur table: 2011
epoch: 1000
next table: 1272
cur table: 1281
epoch: 1000
next table: 2010
cur table: 2012
epoch: 1000
next table: 1276
cur table: 1272
epoch: 1000
next table: 2007
cur table: 2010
epoch: 1000
next table: 1274
cur table: 1276
epoch: 1000
next table: 2010
cur table: 2007
epoch: 1000
next table: 1274
cur table: 1274
epoch: 1000
next table: 2010
cur table: 2010
epoch: 1000
next table: 1280
cur table: 1274
epoch: 1000
next table: 2011
cur table: 2010
epoch: 1000
next table: 1273
cur table: 1280
epoch: 1000
next table: 2011
cur table: 2011
epoch: 1000
next table: 1277
cur table: 1273
epoch: 1000
next table: 2009
cur table: 2011
epoch: 1000
next table: 1272
cur table: 1277
epoch: 1000
next table: 2009
cur table: 2009
Heartbeat CPU 0 instructions: 30000000 cycles: 9296034 heartbeat IPC: 3.54077 cumulative IPC: 3.22718 (Simulation time: 0 hr 7 min 47 sec) 
epoch: 1000
next table: 1280
cur table: 1272
epoch: 1000
next table: 2010
cur table: 2009
epoch: 1000
next table: 1273
cur table: 1280
epoch: 1000
next table: 2010
cur table: 2010
epoch: 1000
next table: 1273
cur table: 1273
epoch: 1000
next table: 2010
cur table: 2010
epoch: 1000
next table: 1277
cur table: 1273
epoch: 1000
next table: 2011
cur table: 2010
epoch: 1000
next table: 1289
cur table: 1277
epoch: 1000
next table: 2012
cur table: 2011
epoch: 1000
next table: 1278
cur table: 1289
epoch: 1000
next table: 2009
cur table: 2012
epoch: 1000
next table: 1263
cur table: 1278
epoch: 1000
next table: 2014
cur table: 2009
epoch: 1000
next table: 1274
cur table: 1263
epoch: 1000
next table: 2005
cur table: 2014
epoch: 1000
next table: 1279
cur table: 1274
epoch: 1000
next table: 2012
cur table: 2005
epoch: 1000
next table: 1295
cur table: 1279
epoch: 1000
next table: 2005
cur table: 2012
epoch: 1000
next table: 1289
cur table: 1295
epoch: 1000
next table: 2011
cur table: 2005
epoch: 1000
next table: 1296
cur table: 1289
epoch: 1000
next table: 2007
cur table: 2011
epoch: 1000
next table: 1283
cur table: 1296
epoch: 1000
next table: 2010
cur table: 2007
epoch: 1000
next table: 1303
cur table: 1283
epoch: 1000
next table: 2012
cur table: 2010
epoch: 1000
next table: 1299
cur table: 1303
epoch: 1000
next table: 2006
cur table: 2012
epoch: 1000
next table: 1298
cur table: 1299
epoch: 1000
next table: 2006
cur table: 2006
epoch: 1000
next table: 1290
cur table: 1298
epoch: 1000
next table: 2010
cur table: 2006
epoch: 1000
next table: 1295
cur table: 1290
epoch: 1000
next table: 2009
cur table: 2010
epoch: 1000
next table: 1297
cur table: 1295
epoch: 1000
next table: 2006
cur table: 2009
epoch: 1000
next table: 1283
cur table: 1297
epoch: 1000
next table: 2013
cur table: 2006
epoch: 1000
next table: 1291
cur table: 1283
epoch: 1000
next table: 2007
cur table: 2013
epoch: 1000
next table: 1310
cur table: 1291
epoch: 1000
next table: 2007
cur table: 2007
epoch: 1000
next table: 1299
cur table: 1310
epoch: 1000
next table: 2010
cur table: 2007
epoch: 1000
next table: 1293
cur table: 1299
epoch: 1000
next table: 2008
cur table: 2010
epoch: 1000
next table: 1294
cur table: 1293
epoch: 1000
next table: 2008
cur table: 2008
epoch: 1000
next table: 1315
cur table: 1294
epoch: 1000
next table: 2009
cur table: 2008
epoch: 1000
next table: 1286
cur table: 1315
epoch: 1000
next table: 2009
cur table: 2009
epoch: 1000
next table: 1288
cur table: 1286
epoch: 1000
next table: 2008
cur table: 2009
epoch: 1000
next table: 1299
cur table: 1288
epoch: 1000
next table: 2012
cur table: 2008
epoch: 1000
next table: 1301
cur table: 1299
epoch: 1000
next table: 2008
cur table: 2012
epoch: 1000
next table: 1287
cur table: 1301
epoch: 1000
next table: 2006
cur table: 2008
epoch: 1000
next table: 1291
cur table: 1287
epoch: 1000
next table: 2010
cur table: 2006
epoch: 1000
next table: 1287
cur table: 1291
epoch: 1000
next table: 2008
cur table: 2010
epoch: 1000
next table: 1297
cur table: 1287
epoch: 1000
next table: 2008
cur table: 2008
epoch: 1000
next table: 1304
cur table: 1297
epoch: 1000
next table: 2006
cur table: 2008
epoch: 1000
next table: 1284
cur table: 1304
epoch: 1000
next table: 2009
cur table: 2006
epoch: 1000
next table: 1428
cur table: 1284
epoch: 1000
next table: 2011
cur table: 2009
epoch: 1000
next table: 1749
cur table: 1428
epoch: 1000
next table: 2022
cur table: 2011
epoch: 1000
next table: 1913
cur table: 1749
epoch: 1000
next table: 2020
cur table: 2022
epoch: 1000
next table: 1939
cur table: 1913
epoch: 1000
next table: 2233
cur table: 2020
epoch: 1000
next table: 1940
cur table: 1939
epoch: 1000
next table: 2192
cur table: 2233
epoch: 1000
next table: 1845
cur table: 1940
epoch: 1000
next table: 2006
cur table: 2192
epoch: 1000
next table: 1945
cur table: 1845
epoch: 1000
next table: 2066
cur table: 2006
epoch: 1000
next table: 1931
cur table: 1945
epoch: 1000
next table: 2295
cur table: 2066
epoch: 1000
next table: 1915
cur table: 1931
epoch: 1000
next table: 2086
cur table: 2295
epoch: 1000
next table: 1870
cur table: 1915
epoch: 1000
next table: 2000
cur table: 2086
epoch: 1000
next table: 1949
cur table: 1870
epoch: 1000
next table: 2125
cur table: 2000
epoch: 1000
next table: 1942
cur table: 1949
epoch: 1000
next table: 2304
cur table: 2125
epoch: 1000
next table: 1918
cur table: 1942
epoch: 1000
next table: 2006
cur table: 2304
epoch: 1000
next table: 2168
cur table: 1918
epoch: 1000
next table: 2002
cur table: 2006
epoch: 1000
next table: 2131
cur table: 2168
epoch: 1000
next table: 2234
cur table: 2002
epoch: 1000
next table: 2149
cur table: 2234
epoch: 1000
next table: 2148
cur table: 2131
epoch: 1000
next table: 2010
cur table: 2149
epoch: 1000
next table: 1837
cur table: 2148
epoch: 1000
next table: 2875
cur table: 2010
epoch: 1000
next table: 1902
cur table: 1837
epoch: 1000
next table: 2155
cur table: 2875
epoch: 1000
next table: 1951
cur table: 1902
epoch: 1000
next table: 2006
cur table: 2155
epoch: 1000
next table: 1743
cur table: 1951
epoch: 1000
next table: 1722
cur table: 1743
epoch: 1000
next table: 2015
cur table: 2006
epoch: 1000
next table: 1732
cur table: 1722
epoch: 1000
next table: 2010
cur table: 2015
epoch: 1000
next table: 1723
cur table: 1732
epoch: 1000
next table: 2012
cur table: 2010
epoch: 1000
next table: 1742
cur table: 1723
epoch: 1000
next table: 2010
cur table: 2012
epoch: 1000
next table: 1728
cur table: 1742
epoch: 1000
next table: 2011
cur table: 2010
epoch: 1000
next table: 1728
cur table: 1728
epoch: 1000
next table: 2010
cur table: 2011
epoch: 1000
next table: 1741
cur table: 1728
epoch: 1000
next table: 2011
cur table: 2010
epoch: 1000
next table: 1723
cur table: 1741
epoch: 1000
next table: 2006
cur table: 2011
epoch: 1000
next table: 1733
cur table: 1723
epoch: 1000
next table: 2015
cur table: 2006
epoch: 1000
next table: 1737
cur table: 1733
epoch: 1000
next table: 2004
cur table: 2015
epoch: 1000
next table: 1740
cur table: 1737
epoch: 1000
next table: 2014
cur table: 2004
epoch: 1000
next table: 1722
cur table: 1740
epoch: 1000
next table: 2009
cur table: 2014
epoch: 1000
next table: 1730
cur table: 1722
epoch: 1000
next table: 2009
cur table: 2009
epoch: 1000
next table: 1745
cur table: 1730
epoch: 1000
next table: 2008
cur table: 2009
epoch: 1000
next table: 1721
cur table: 1745
epoch: 1000
next table: 2016
cur table: 2008
epoch: 1000
next table: 1734
cur table: 1721
epoch: 1000
next table: 2009
cur table: 2016
epoch: 1000
next table: 1731
cur table: 1734
epoch: 1000
next table: 2014
cur table: 2009
epoch: 1000
next table: 1739
cur table: 1731
epoch: 1000
next table: 2012
cur table: 2014
epoch: 1000
next table: 1724
cur table: 1739
epoch: 1000
next table: 2012
cur table: 2012
epoch: 1000
next table: 1726
cur table: 1724
epoch: 1000
next table: 2009
cur table: 2012
epoch: 1000
next table: 1736
cur table: 1726
epoch: 1000
next table: 2017
cur table: 2009
epoch: 1000
next table: 1735
cur table: 1736
epoch: 1000
next table: 2010
cur table: 2017
epoch: 1000
next table: 1723
cur table: 1735
epoch: 1000
next table: 2011
cur table: 2010
epoch: 1000
next table: 1717
cur table: 1723
epoch: 1000
next table: 2007
cur table: 2011
epoch: 1000
next table: 1735
cur table: 1717
epoch: 1000
next table: 2013
cur table: 2007
epoch: 1000
next table: 1739
cur table: 1735
epoch: 1000
next table: 2008
cur table: 2013
epoch: 1000
next table: 1720
cur table: 1739
epoch: 1000
next table: 2014
cur table: 2008
epoch: 1000
next table: 1723
cur table: 1720
epoch: 1000
next table: 2013
cur table: 2014
epoch: 1000
next table: 1729
cur table: 1723
epoch: 1000
next table: 2009
cur table: 2013
epoch: 1000
next table: 1730
cur table: 1729
epoch: 1000
next table: 2008
cur table: 2009
epoch: 1000
next table: 1730
cur table: 1730
epoch: 1000
next table: 2010
cur table: 2008
epoch: 1000
next table: 1735
cur table: 1730
epoch: 1000
next table: 2014
cur table: 2010
epoch: 1000
next table: 1737
cur table: 1735
epoch: 1000
next table: 2012
cur table: 2014
epoch: 1000
next table: 1704
cur table: 1737
epoch: 1000
next table: 2012
cur table: 2012
epoch: 1000
next table: 1522
cur table: 1704
epoch: 1000
next table: 2009
cur table: 2012
epoch: 1000
next table: 1522
cur table: 1522
epoch: 1000
next table: 2004
cur table: 2009
epoch: 1000
next table: 1524
cur table: 1522
epoch: 1000
next table: 2012
cur table: 2004
epoch: 1000
next table: 1533
cur table: 1524
epoch: 1000
next table: 2015
cur table: 2012
epoch: 1000
next table: 1525
cur table: 1533
epoch: 1000
next table: 2007
cur table: 2015
epoch: 1000
next table: 1524
cur table: 1525
epoch: 1000
next table: 2008
cur table: 2007
epoch: 1000
next table: 1519
cur table: 1524
epoch: 1000
next table: 2010
cur table: 2008
epoch: 1000
next table: 1543
cur table: 1519
epoch: 1000
next table: 2012
cur table: 2010
epoch: 1000
next table: 1536
cur table: 1543
epoch: 1000
next table: 2010
cur table: 2012
epoch: 1000
next table: 1533
cur table: 1536
epoch: 1000
next table: 2005
cur table: 2010
epoch: 1000
next table: 1533
cur table: 1533
epoch: 1000
next table: 2014
cur table: 2005
epoch: 1000
next table: 1526
cur table: 1533
epoch: 1000
next table: 2005
cur table: 2014
epoch: 1000
next table: 1535
cur table: 1526
epoch: 1000
next table: 2010
cur table: 2005
epoch: 1000
next table: 1528
cur table: 1535
epoch: 1000
next table: 2009
cur table: 2010
epoch: 1000
next table: 1519
cur table: 1528
epoch: 1000
next table: 2003
cur table: 2009
epoch: 1000
next table: 1536
cur table: 1519
epoch: 1000
next table: 2014
cur table: 2003
epoch: 1000
next table: 1533
cur table: 1536
epoch: 1000
next table: 2010
cur table: 2014
epoch: 1000
next table: 1535
cur table: 1533
epoch: 1000
next table: 1520
cur table: 1535
epoch: 1000
next table: 2007
cur table: 2010
epoch: 1000
next table: 1528
cur table: 1520
epoch: 1000
next table: 2013
cur table: 2007
epoch: 1000
next table: 1531
cur table: 1528
epoch: 1000
next table: 2010
cur table: 2013
epoch: 1000
next table: 1539
cur table: 1531
epoch: 1000
next table: 2012
cur table: 2010
epoch: 1000
next table: 1537
cur table: 1539
epoch: 1000
next table: 2008
cur table: 2012
epoch: 1000
next table: 1534
cur table: 1537
epoch: 1000
next table: 2011
cur table: 2008
epoch: 1000
next table: 1526
cur table: 1534
epoch: 1000
next table: 2005
cur table: 2011
epoch: 1000
next table: 1538
cur table: 1526
epoch: 1000
next table: 2007
cur table: 2005
epoch: 1000
next table: 1510
cur table: 1538
epoch: 1000
next table: 2010
cur table: 2007
epoch: 1000
next table: 1537
cur table: 1510
epoch: 1000
next table: 2015
cur table: 2010
epoch: 1000
next table: 1519
cur table: 1537
epoch: 1000
next table: 2013
cur table: 2015
epoch: 1000
next table: 1518
cur table: 1519
epoch: 1000
next table: 2009
cur table: 2013
epoch: 1000
next table: 1519
cur table: 1518
epoch: 1000
next table: 2006
cur table: 2009
epoch: 1000
next table: 1535
cur table: 1519
epoch: 1000
next table: 2006
cur table: 2006
epoch: 1000
next table: 1524
cur table: 1535
epoch: 1000
next table: 2013
cur table: 2006
epoch: 1000
next table: 1521
cur table: 1524
epoch: 1000
next table: 2013
cur table: 2013
epoch: 1000
next table: 1519
cur table: 1521
epoch: 1000
next table: 2004
cur table: 2013
epoch: 1000
next table: 1519
cur table: 1519
epoch: 1000
next table: 2011
cur table: 2004
epoch: 1000
next table: 1533
cur table: 1519
epoch: 1000
next table: 2013
cur table: 2011
epoch: 1000
next table: 1514
cur table: 1533
epoch: 1000
next table: 2010
cur table: 2013
epoch: 1000
next table: 1539
cur table: 1514
epoch: 1000
next table: 2005
cur table: 2010
epoch: 1000
next table: 1520
cur table: 1539
epoch: 1000
next table: 2012
cur table: 2005
epoch: 1000
next table: 1529
cur table: 1520
epoch: 1000
next table: 2010
cur table: 2012
epoch: 1000
next table: 1510
cur table: 1529
epoch: 1000
next table: 2008
cur table: 2010
epoch: 1000
next table: 1530
cur table: 1510
epoch: 1000
next table: 2005
cur table: 2008
epoch: 1000
next table: 1524
cur table: 1530
epoch: 1000
next table: 2011
cur table: 2005
epoch: 1000
next table: 1521
cur table: 1524
epoch: 1000
next table: 2008
cur table: 2011
epoch: 1000
next table: 1529
cur table: 1521
epoch: 1000
next table: 2011
cur table: 2008
epoch: 1000
next table: 1528
cur table: 1529
epoch: 1000
next table: 2006
cur table: 2011
epoch: 1000
next table: 1516
cur table: 1528
epoch: 1000
next table: 2006
cur table: 2006
epoch: 1000
next table: 1524
cur table: 1516
epoch: 1000
next table: 2014
cur table: 2006
epoch: 1000
next table: 1532
cur table: 1524
epoch: 1000
next table: 2009
cur table: 2014
epoch: 1000
next table: 1520
cur table: 1532
epoch: 1000
next table: 2005
cur table: 2009
epoch: 1000
next table: 1534
cur table: 1520
epoch: 1000
next table: 2005
cur table: 2005
epoch: 1000
next table: 1532
cur table: 1534
epoch: 1000
next table: 2011
cur table: 2005
epoch: 1000
next table: 1508
cur table: 1532
epoch: 1000
next table: 2009
cur table: 2011
epoch: 1000
next table: 1517
cur table: 1508
epoch: 1000
next table: 2008
cur table: 2009
epoch: 1000
next table: 1529
cur table: 1517
epoch: 1000
next table: 2010
cur table: 2008
epoch: 1000
next table: 1539
cur table: 1529
epoch: 1000
next table: 2010
cur table: 2010
epoch: 1000
next table: 1534
cur table: 1539
epoch: 1000
next table: 2010
cur table: 2010
epoch: 1000
next table: 1530
cur table: 1534
epoch: 1000
next table: 2014
cur table: 2010
epoch: 1000
next table: 1539
cur table: 1530
epoch: 1000
next table: 2006
cur table: 2014
epoch: 1000
next table: 1535
cur table: 1539
epoch: 1000
next table: 2014
cur table: 2006
epoch: 1000
next table: 1532
cur table: 1535
epoch: 1000
next table: 2010
cur table: 2014
epoch: 1000
next table: 1544
cur table: 1532
epoch: 1000
next table: 2011
cur table: 2010
epoch: 1000
next table: 1537
cur table: 1544
epoch: 1000
next table: 2010
cur table: 2011
epoch: 1000
next table: 1527
cur table: 1537
epoch: 1000
next table: 2010
cur table: 2010
epoch: 1000
next table: 1529
cur table: 1527
epoch: 1000
next table: 2012
cur table: 2010
epoch: 1000
next table: 1541
cur table: 1529
epoch: 1000
next table: 2012
cur table: 2012
epoch: 1000
next table: 1541
cur table: 1541
epoch: 1000
next table: 2007
cur table: 2012
epoch: 1000
next table: 1539
cur table: 1541
epoch: 1000
next table: 2012
cur table: 2007
epoch: 1000
next table: 1537
cur table: 1539
epoch: 1000
next table: 2009
cur table: 2012
epoch: 1000
next table: 1522
cur table: 1537
epoch: 1000
next table: 2013
cur table: 2009
epoch: 1000
next table: 1541
cur table: 1522
epoch: 1000
next table: 2012
cur table: 2013
epoch: 1000
next table: 1539
cur table: 1541
epoch: 1000
next table: 2008
cur table: 2012
epoch: 1000
next table: 1541
cur table: 1539
epoch: 1000
next table: 1537
cur table: 1541
epoch: 1000
next table: 2008
cur table: 2008
epoch: 1000
next table: 1542
cur table: 1537
epoch: 1000
next table: 2011
cur table: 2008
epoch: 1000
next table: 1536
cur table: 1542
epoch: 1000
next table: 2010
cur table: 2011
epoch: 1000
next table: 1531
cur table: 1536
epoch: 1000
next table: 2010
cur table: 2010
epoch: 1000
next table: 1539
cur table: 1531
epoch: 1000
next table: 2010
cur table: 2010
epoch: 1000
next table: 1526
cur table: 1539
epoch: 1000
next table: 2009
cur table: 2010
epoch: 1000
next table: 1539
cur table: 1526
epoch: 1000
next table: 2011
cur table: 2009
epoch: 1000
next table: 1599
cur table: 1539
epoch: 1000
next table: 2005
cur table: 2011
epoch: 1000
next table: 1626
cur table: 1599
epoch: 1000
next table: 2018
cur table: 2005
epoch: 1000
next table: 1624
cur table: 1626
epoch: 1000
next table: 2013
cur table: 2018
epoch: 1000
next table: 1629
cur table: 1624
epoch: 1000
next table: 2014
cur table: 2013
epoch: 1000
next table: 1606
cur table: 1629
epoch: 1000
next table: 2017
cur table: 2014
epoch: 1000
next table: 1631
cur table: 1606
epoch: 1000
next table: 2012
cur table: 2017
epoch: 1000
next table: 1636
cur table: 1631
epoch: 1000
next table: 2015
cur table: 2012
epoch: 1000
next table: 1616
cur table: 1636
epoch: 1000
next table: 2008
cur table: 2015
epoch: 1000
next table: 1621
cur table: 1616
epoch: 1000
next table: 2018
cur table: 2008
epoch: 1000
next table: 1622
cur table: 1621
epoch: 1000
next table: 2012
cur table: 2018
epoch: 1000
next table: 1626
cur table: 1622
epoch: 1000
next table: 2017
cur table: 2012
epoch: 1000
next table: 2013
cur table: 2017
epoch: 1000
next table: 1620
cur table: 1626
epoch: 1000
next table: 2015
cur table: 2013
epoch: 1000
next table: 1615
cur table: 1620
epoch: 1000
next table: 2010
cur table: 2015
epoch: 1000
next table: 1654
cur table: 1615
epoch: 1000
next table: 2014
cur table: 2010
epoch: 1000
next table: 1633
cur table: 1654
epoch: 1000
next table: 2017
cur table: 2014
epoch: 1000
next table: 1634
cur table: 1633
epoch: 1000
next table: 2009
cur table: 2017
epoch: 1000
next table: 1623
cur table: 1634
epoch: 1000
next table: 2017
cur table: 2009
epoch: 1000
next table: 1622
cur table: 1623
epoch: 1000
next table: 2012
cur table: 2017
epoch: 1000
next table: 1608
cur table: 1622
epoch: 1000
next table: 2018
cur table: 2012
epoch: 1000
next table: 1628
cur table: 1608
epoch: 1000
next table: 2013
cur table: 2018
epoch: 1000
next table: 1616
cur table: 1628
epoch: 1000
next table: 2015
cur table: 2013
epoch: 1000
next table: 1620
cur table: 1616
epoch: 1000
next table: 2016
cur table: 2015
epoch: 1000
next table: 1626
cur table: 1620
epoch: 1000
next table: 2013
cur table: 2016
epoch: 1000
next table: 1612
cur table: 1626
epoch: 1000
next table: 2010
cur table: 2013
epoch: 1000
next table: 1639
cur table: 1612
epoch: 1000
next table: 2017
cur table: 2010
epoch: 1000
next table: 1622
cur table: 1639
epoch: 1000
next table: 2016
cur table: 2017
epoch: 1000
next table: 1635
cur table: 1622
epoch: 1000
next table: 2014
cur table: 2016
epoch: 1000
next table: 1613
cur table: 1635
epoch: 1000
next table: 2016
cur table: 2014
epoch: 1000
next table: 1613
cur table: 1613
epoch: 1000
next table: 2010
cur table: 2016
epoch: 1000
next table: 1628
cur table: 1613
epoch: 1000
next table: 2016
cur table: 2010
epoch: 1000
next table: 1633
cur table: 1628
epoch: 1000
next table: 2012
cur table: 2016
epoch: 1000
next table: 1646
cur table: 1633
epoch: 1000
next table: 2015
cur table: 2012
epoch: 1000
next table: 1634
cur table: 1646
epoch: 1000
next table: 2019
cur table: 2015
epoch: 1000
next table: 1625
cur table: 1634
epoch: 1000
next table: 2013
cur table: 2019
epoch: 1000
next table: 1635
cur table: 1625
epoch: 1000
next table: 2014
cur table: 2013
epoch: 1000
next table: 1613
cur table: 1635
epoch: 1000
next table: 2013
cur table: 2014
epoch: 1000
next table: 1624
cur table: 1613
epoch: 1000
next table: 2014
cur table: 2013
epoch: 1000
next table: 1601
cur table: 1624
epoch: 1000
next table: 2015
cur table: 2014
epoch: 1000
next table: 1644
cur table: 1601
epoch: 1000
next table: 2015
cur table: 2015
epoch: 1000
next table: 1644
cur table: 1644
epoch: 1000
next table: 2009
cur table: 2015
epoch: 1000
next table: 1628
cur table: 1644
epoch: 1000
next table: 2017
cur table: 2009
epoch: 1000
next table: 1607
cur table: 1628
epoch: 1000
next table: 2018
cur table: 2017
epoch: 1000
next table: 1619
cur table: 1607
epoch: 1000
next table: 2008
cur table: 2018
epoch: 1000
next table: 1614
cur table: 1619
epoch: 1000
next table: 2016
cur table: 2008
epoch: 1000
next table: 1591
cur table: 1614
epoch: 1000
next table: 2010
cur table: 2016
epoch: 1000
next table: 1627
cur table: 1591
epoch: 1000
next table: 2016
cur table: 2010
epoch: 1000
next table: 1624
cur table: 1627
epoch: 1000
next table: 2013
cur table: 2016
epoch: 1000
next table: 1629
cur table: 1624
epoch: 1000
next table: 2016
cur table: 2013
epoch: 1000
next table: 1627
cur table: 1629
epoch: 1000
next table: 2015
cur table: 2016
epoch: 1000
next table: 1615
cur table: 1627
epoch: 1000
next table: 2014
cur table: 2015
epoch: 1000
next table: 1608
cur table: 1615
epoch: 1000
next table: 2017
cur table: 2014
epoch: 1000
next table: 1614
cur table: 1608
epoch: 1000
next table: 2014
cur table: 2017
epoch: 1000
next table: 1634
cur table: 1614
epoch: 1000
next table: 2013
cur table: 2014
epoch: 1000
next table: 1640
cur table: 1634
epoch: 1000
next table: 2012
cur table: 2013
epoch: 1000
next table: 1732
cur table: 1640
epoch: 1000
next table: 2015
cur table: 2012
epoch: 1000
next table: 1780
cur table: 1732
epoch: 1000
next table: 2013
cur table: 2015
epoch: 1000
next table: 1772
cur table: 1780
epoch: 1000
next table: 2015
cur table: 2013
epoch: 1000
next table: 1806
cur table: 1772
epoch: 1000
next table: 2014
cur table: 2015
epoch: 1000
next table: 1806
cur table: 1806
epoch: 1000
next table: 2012
cur table: 2014
epoch: 1000
next table: 1819
cur table: 1806
epoch: 1000
next table: 2014
cur table: 2012
epoch: 1000
next table: 1823
cur table: 1819
epoch: 1000
next table: 2013
cur table: 2014
epoch: 1000
next table: 1822
cur table: 1823
epoch: 1000
next table: 2014
cur table: 2013
epoch: 1000
next table: 1828
cur table: 1822
epoch: 1000
next table: 2014
cur table: 2014
epoch: 1000
next table: 1834
cur table: 1828
epoch: 1000
next table: 2014
cur table: 2014
epoch: 1000
next table: 1821
cur table: 1834
epoch: 1000
next table: 2013
cur table: 2014
epoch: 1000
next table: 1840
cur table: 1821
epoch: 1000
next table: 2014
cur table: 2013
epoch: 1000
next table: 1847
cur table: 1840
epoch: 1000
next table: 2014
cur table: 2014
epoch: 1000
next table: 1831
cur table: 1847
epoch: 1000
next table: 2011
cur table: 2014
epoch: 1000
next table: 1845
cur table: 1831
epoch: 1000
next table: 2014
cur table: 2011
epoch: 1000
next table: 1831
cur table: 1845
epoch: 1000
next table: 2013
cur table: 2014
epoch: 1000
next table: 1848
cur table: 1831
epoch: 1000
next table: 2015
cur table: 2013
epoch: 1000
next table: 1830
cur table: 1848
epoch: 1000
next table: 2009
cur table: 2015
epoch: 1000
next table: 1552
cur table: 1830
epoch: 1000
next table: 2010
cur table: 2009
epoch: 1000
next table: 1556
cur table: 1552
epoch: 1000
next table: 2015
cur table: 2010
epoch: 1000
next table: 1555
cur table: 1556
epoch: 1000
next table: 2007
cur table: 2015
epoch: 1000
next table: 1556
cur table: 1555
epoch: 1000
next table: 2014
cur table: 2007
epoch: 1000
next table: 1540
cur table: 1556
epoch: 1000
next table: 2008
cur table: 2014
epoch: 1000
next table: 1549
cur table: 1540
epoch: 1000
next table: 2007
cur table: 2008
epoch: 1000
next table: 1547
cur table: 1549
epoch: 1000
next table: 2009
cur table: 2007
epoch: 1000
next table: 1549
cur table: 1547
epoch: 1000
next table: 2009
cur table: 2009
epoch: 1000
next table: 1544
cur table: 1549
epoch: 1000
next table: 2008
cur table: 2009
epoch: 1000
next table: 1535
cur table: 1544
epoch: 1000
next table: 2010
cur table: 2008
epoch: 1000
next table: 1550
cur table: 1535
epoch: 1000
next table: 2008
cur table: 2010
epoch: 1000
next table: 1552
cur table: 1550
epoch: 1000
next table: 2010
cur table: 2008
epoch: 1000
next table: 1533
cur table: 1552
epoch: 1000
next table: 2015
cur table: 2010
epoch: 1000
next table: 1541
cur table: 1533
epoch: 1000
next table: 2003
cur table: 2015
epoch: 1000
next table: 1551
cur table: 1541
epoch: 1000
next table: 2011
cur table: 2003
epoch: 1000
next table: 1543
cur table: 1551
epoch: 1000
next table: 2015
cur table: 2011
epoch: 1000
next table: 1550
cur table: 1543
epoch: 1000
next table: 2005
cur table: 2015
epoch: 1000
next table: 1559
cur table: 1550
epoch: 1000
next table: 2009
cur table: 2005
epoch: 1000
next table: 1536
cur table: 1559
epoch: 1000
next table: 2014
cur table: 2009
epoch: 1000
next table: 1548
cur table: 1536
epoch: 1000
next table: 2013
cur table: 2014
epoch: 1000
next table: 1546
cur table: 1548
epoch: 1000
next table: 2002
cur table: 2013
epoch: 1000
next table: 1544
cur table: 1546
epoch: 1000
next table: 1548
cur table: 1544
epoch: 1000
next table: 2007
cur table: 2002
epoch: 1000
next table: 1537
cur table: 1548
epoch: 1000
next table: 2016
cur table: 2007
epoch: 1000
next table: 1549
cur table: 1537
epoch: 1000
next table: 2004
cur table: 2016
epoch: 1000
next table: 1533
cur table: 1549
epoch: 1000
next table: 2011
cur table: 2004
epoch: 1000
next table: 1534
cur table: 1533
epoch: 1000
next table: 2013
cur table: 2011
epoch: 1000
next table: 1562
cur table: 1534
epoch: 1000
next table: 2016
cur table: 2013
epoch: 1000
next table: 1544
cur table: 1562
epoch: 1000
next table: 2008
cur table: 2016
epoch: 1000
next table: 1538
cur table: 1544
epoch: 1000
next table: 2008
cur table: 2008
epoch: 1000
next table: 1540
cur table: 1538
epoch: 1000
next table: 2010
cur table: 2008
epoch: 1000
next table: 1546
cur table: 1540
epoch: 1000
next table: 2014
cur table: 2010
epoch: 1000
next table: 1546
cur table: 1546
epoch: 1000
next table: 2011
cur table: 2014
epoch: 1000
next table: 1546
cur table: 1546
epoch: 1000
next table: 2008
cur table: 2011
epoch: 1000
next table: 1532
cur table: 1546
epoch: 1000
next table: 2012
cur table: 2008
epoch: 1000
next table: 1539
cur table: 1532
epoch: 1000
next table: 2013
cur table: 2012
epoch: 1000
next table: 1553
cur table: 1539
epoch: 1000
next table: 2012
cur table: 2013
epoch: 1000
next table: 1542
cur table: 1553
epoch: 1000
next table: 2008
cur table: 2012
epoch: 1000
next table: 1550
cur table: 1542
epoch: 1000
next table: 2013
cur table: 2008
epoch: 1000
next table: 1542
cur table: 1550
epoch: 1000
next table: 2011
cur table: 2013
epoch: 1000
next table: 1544
cur table: 1542
epoch: 1000
next table: 2008
cur table: 2011
epoch: 1000
next table: 1544
cur table: 1544
epoch: 1000
next table: 2013
cur table: 2008
epoch: 1000
next table: 1543
cur table: 1544
epoch: 1000
next table: 2008
cur table: 2013
epoch: 1000
next table: 1544
cur table: 1543
epoch: 1000
next table: 2014
cur table: 2008
epoch: 1000
next table: 1545
cur table: 1544
epoch: 1000
next table: 2010
cur table: 2014
epoch: 1000
next table: 1538
cur table: 1545
epoch: 1000
next table: 2007
cur table: 2010
epoch: 1000
next table: 1551
cur table: 1538
epoch: 1000
next table: 2014
cur table: 2007
epoch: 1000
next table: 1545
cur table: 1551
epoch: 1000
next table: 2010
cur table: 2014
epoch: 1000
next table: 1543
cur table: 1545
epoch: 1000
next table: 2011
cur table: 2010
epoch: 1000
next table: 1547
cur table: 1543
epoch: 1000
next table: 2001
cur table: 2011
epoch: 1000
next table: 1543
cur table: 1547
epoch: 1000
next table: 2017
cur table: 2001
epoch: 1000
next table: 1550
cur table: 1543
epoch: 1000
next table: 2011
cur table: 2017
epoch: 1000
next table: 1542
cur table: 1550
epoch: 1000
next table: 2009
cur table: 2011
epoch: 1000
next table: 1539
cur table: 1542
epoch: 1000
next table: 2008
cur table: 2009
epoch: 1000
next table: 1549
cur table: 1539
epoch: 1000
next table: 2019
cur table: 2008
epoch: 1000
next table: 1544
cur table: 1549
epoch: 1000
next table: 2014
cur table: 2019
epoch: 1000
next table: 1547
cur table: 1544
epoch: 1000
next table: 2006
cur table: 2014
epoch: 1000
next table: 1557
cur table: 1547
epoch: 1000
next table: 2010
cur table: 2006
epoch: 1000
next table: 1533
cur table: 1557
epoch: 1000
next table: 2017
cur table: 2010
epoch: 1000
next table: 1542
cur table: 1533
epoch: 1000
next table: 2009
cur table: 2017
epoch: 1000
next table: 1546
cur table: 1542
epoch: 1000
next table: 2008
cur table: 2009
epoch: 1000
next table: 1582
cur table: 1546
epoch: 1000
next table: 2013
cur table: 2008
epoch: 1000
next table: 1758
cur table: 1582
epoch: 1000
next table: 2003
cur table: 2013
epoch: 1000
next table: 1786
cur table: 1758
epoch: 1000
next table: 2004
cur table: 2003
epoch: 1000
next table: 1791
cur table: 1786
epoch: 1000
next table: 2003
cur table: 2004
epoch: 1000
next table: 1802
cur table: 1791
epoch: 1000
next table: 2004
cur table: 2003
epoch: 1000
next table: 1793
cur table: 1802
epoch: 1000
next table: 2003
cur table: 2004
epoch: 1000
next table: 1802
cur table: 1793
epoch: 1000
next table: 2006
cur table: 2003
epoch: 1000
next table: 1812
cur table: 1802
epoch: 1000
next table: 2003
cur table: 2006
epoch: 1000
next table: 1804
cur table: 1812
epoch: 1000
next table: 2005
cur table: 2003
epoch: 1000
next table: 1814
cur table: 1804
epoch: 1000
next table: 2002
cur table: 2005
epoch: 1000
next table: 1831
cur table: 1814
epoch: 1000
next table: 2005
cur table: 2002
epoch: 1000
next table: 1843
cur table: 1831
epoch: 1000
next table: 2002
cur table: 2005
epoch: 1000
next table: 1858
cur table: 1843
epoch: 1000
next table: 2005
cur table: 2002
epoch: 1000
next table: 1846
cur table: 1858
epoch: 1000
next table: 2002
cur table: 2005
epoch: 1000
next table: 1872
cur table: 1846
epoch: 1000
next table: 2005
cur table: 2002
epoch: 1000
next table: 1894
cur table: 1872
epoch: 1000
next table: 2004
cur table: 2005
epoch: 1000
next table: 2039
cur table: 1894
epoch: 1000
next table: 2003
cur table: 2004
epoch: 1000
next table: 1810
cur table: 2039
epoch: 1000
next table: 2005
cur table: 2003
epoch: 1000
next table: 1884
cur table: 1810
epoch: 1000
next table: 2045
cur table: 2005
epoch: 1000
next table: 1790
cur table: 1884
epoch: 1000
next table: 2025
cur table: 2045
epoch: 1000
next table: 1856
cur table: 1790
epoch: 1000
next table: 2040
cur table: 2025
epoch: 1000
next table: 1846
cur table: 1856
epoch: 1000
next table: 2033
cur table: 2040
epoch: 1000
next table: 1805
cur table: 1846
epoch: 1000
next table: 2028
cur table: 2033
epoch: 1000
next table: 1847
cur table: 1805
epoch: 1000
next table: 2036
cur table: 2028
epoch: 1000
next table: 1818
cur table: 1847
epoch: 1000
next table: 2038
cur table: 2036
epoch: 1000
next table: 1800
cur table: 1818
epoch: 1000
next table: 2044
cur table: 2038
epoch: 1000
next table: 1863
cur table: 1800
epoch: 1000
next table: 2037
cur table: 2044
epoch: 1000
next table: 1805
cur table: 1863
epoch: 1000
next table: 2034
cur table: 2037
epoch: 1000
next table: 1811
cur table: 1805
epoch: 1000
next table: 2034
cur table: 2034
epoch: 1000
next table: 1858
cur table: 1811
epoch: 1000
next table: 2034
cur table: 2034
epoch: 1000
next table: 1777
cur table: 1858
epoch: 1000
next table: 2032
cur table: 2034
epoch: 1000
next table: 1833
cur table: 1777
epoch: 1000
next table: 2043
cur table: 2032
epoch: 1000
next table: 1850
cur table: 1833
epoch: 1000
next table: 2042
cur table: 2043
Heartbeat CPU 0 instructions: 40000002 cycles: 12188072 heartbeat IPC: 3.45777 cumulative IPC: 3.2819 (Simulation time: 0 hr 10 min 15 sec) 
epoch: 1000
next table: 1789
cur table: 1850
epoch: 1000
next table: 2026
cur table: 2042
epoch: 1000
next table: 1863
cur table: 1789
epoch: 1000
next table: 2046
cur table: 2026
epoch: 1000
next table: 1808
cur table: 1863
epoch: 1000
next table: 2022
cur table: 2046
epoch: 1000
next table: 1811
cur table: 1808
epoch: 1000
next table: 2046
cur table: 2022
epoch: 1000
next table: 1871
cur table: 1811
epoch: 1000
next table: 2033
cur table: 2046
epoch: 1000
next table: 1789
cur table: 1871
epoch: 1000
next table: 2026
cur table: 2033
epoch: 1000
next table: 1838
cur table: 1789
epoch: 1000
next table: 2059
cur table: 2026
epoch: 1000
next table: 1853
cur table: 1838
epoch: 1000
next table: 2022
cur table: 2059
epoch: 1000
next table: 1776
cur table: 1853
epoch: 1000
next table: 2039
cur table: 2022
epoch: 1000
next table: 1837
cur table: 1776
epoch: 1000
next table: 2024
cur table: 2039
epoch: 1000
next table: 1828
cur table: 1837
epoch: 1000
next table: 2030
cur table: 2024
epoch: 1000
next table: 1801
cur table: 1828
epoch: 1000
next table: 2055
cur table: 2030
epoch: 1000
next table: 1857
cur table: 1801
epoch: 1000
next table: 2018
cur table: 2055
epoch: 1000
next table: 1799
cur table: 1857
epoch: 1000
next table: 2049
cur table: 2018
epoch: 1000
next table: 1820
cur table: 1799
epoch: 1000
next table: 2022
cur table: 2049
epoch: 1000
next table: 1862
cur table: 1820
epoch: 1000
next table: 2028
cur table: 2022
epoch: 1000
next table: 1792
cur table: 1862
epoch: 1000
next table: 2043
cur table: 2028
epoch: 1000
next table: 1818
cur table: 1792
epoch: 1000
next table: 2017
cur table: 2043
epoch: 1000
next table: 1829
cur table: 1818
epoch: 1000
next table: 2080
cur table: 2017
epoch: 1000
next table: 1803
cur table: 1829
epoch: 1000
next table: 2021
cur table: 2080
epoch: 1000
next table: 1854
cur table: 1803
epoch: 1000
next table: 2026
cur table: 2021
epoch: 1000
next table: 1839
cur table: 1854
epoch: 1000
next table: 2043
cur table: 2026
epoch: 1000
next table: 1786
cur table: 1839
epoch: 1000
next table: 2014
cur table: 2043
epoch: 1000
next table: 1871
cur table: 1786
epoch: 1000
next table: 2061
cur table: 2014
epoch: 1000
next table: 1790
cur table: 1871
epoch: 1000
next table: 2014
cur table: 2061
epoch: 1000
next table: 1804
cur table: 1790
epoch: 1000
next table: 2038
cur table: 2014
epoch: 1000
next table: 1868
cur table: 1804
epoch: 1000
next table: 2061
cur table: 2038
epoch: 1000
next table: 1784
cur table: 1868
epoch: 1000
next table: 2029
cur table: 2061
epoch: 1000
next table: 1825
cur table: 1784
epoch: 1000
next table: 2059
cur table: 2029
epoch: 1000
next table: 1789
cur table: 1825
epoch: 1000
next table: 1772
cur table: 1789
epoch: 1000
next table: 2057
cur table: 2059
epoch: 1000
next table: 1717
cur table: 1772
epoch: 1000
next table: 3369
cur table: 2057
epoch: 1000
next table: 1874
cur table: 1717
epoch: 1000
next table: 2357
cur table: 3369
epoch: 1000
next table: 1790
cur table: 1874
epoch: 1000
next table: 2057
cur table: 2357
epoch: 1000
next table: 1780
cur table: 1790
epoch: 1000
next table: 2058
cur table: 2057
epoch: 1000
next table: 1737
cur table: 1780
epoch: 1000
next table: 3297
cur table: 2058
epoch: 1000
next table: 1798
cur table: 1737
epoch: 1000
next table: 2456
cur table: 3297
epoch: 1000
next table: 1774
cur table: 1798
epoch: 1000
next table: 2055
cur table: 2456
epoch: 1000
next table: 1727
cur table: 1774
epoch: 1000
next table: 2056
cur table: 2055
epoch: 1000
next table: 1731
cur table: 1727
epoch: 1000
next table: 3104
cur table: 2056
epoch: 1000
next table: 1764
cur table: 1731
epoch: 1000
next table: 2696
cur table: 3104
epoch: 1000
next table: 1841
cur table: 1764
epoch: 1000
next table: 2068
cur table: 2696
epoch: 1000
next table: 1791
cur table: 1841
epoch: 1000
next table: 2057
cur table: 2068
epoch: 1000
next table: 1761
cur table: 1791
epoch: 1000
next table: 2854
cur table: 2057
epoch: 1000
next table: 1785
cur table: 1761
epoch: 1000
next table: 2776
cur table: 2854
epoch: 1000
next table: 1864
cur table: 1785
epoch: 1000
next table: 2064
cur table: 2776
epoch: 1000
next table: 1780
cur table: 1864
epoch: 1000
next table: 2042
cur table: 2064
epoch: 1000
next table: 1805
cur table: 1780
epoch: 1000
next table: 2872
cur table: 2042
epoch: 1000
next table: 1755
cur table: 1805
epoch: 1000
next table: 2803
cur table: 2872
epoch: 1000
next table: 1855
cur table: 1755
epoch: 1000
next table: 2104
cur table: 2803
epoch: 1000
next table: 1792
cur table: 1855
epoch: 1000
next table: 2055
cur table: 2104
epoch: 1000
next table: 1778
cur table: 1792
epoch: 1000
next table: 2676
cur table: 2055
epoch: 1000
next table: 1804
cur table: 1778
epoch: 1000
next table: 2854
cur table: 2676
epoch: 1000
next table: 1848
cur table: 1804
epoch: 1000
next table: 2157
cur table: 2854
epoch: 1000
next table: 1804
cur table: 1848
epoch: 1000
next table: 2059
cur table: 2157
epoch: 1000
next table: 1774
cur table: 1804
epoch: 1000
next table: 2514
cur table: 2059
epoch: 1000
next table: 1816
cur table: 1774
epoch: 1000
next table: 2986
cur table: 2514
epoch: 1000
next table: 1801
cur table: 1816
epoch: 1000
next table: 2177
cur table: 2986
epoch: 1000
next table: 1866
cur table: 1801
epoch: 1000
next table: 2012
cur table: 2177
epoch: 1000
next table: 1652
cur table: 1866
epoch: 1000
next table: 2266
cur table: 2012
epoch: 1000
next table: 1606
cur table: 1652
epoch: 1000
next table: 2475
cur table: 2266
epoch: 1000
next table: 1464
cur table: 1606
epoch: 1000
next table: 2103
cur table: 2475
epoch: 1000
next table: 1486
cur table: 1464
epoch: 1000
next table: 2476
cur table: 2103
epoch: 1000
next table: 1527
cur table: 1486
epoch: 1000
next table: 2453
cur table: 2476
epoch: 1000
next table: 1494
cur table: 1527
epoch: 1000
next table: 2489
cur table: 2453
epoch: 1000
next table: 1498
cur table: 1494
epoch: 1000
next table: 2257
cur table: 2489
epoch: 1000
next table: 1481
cur table: 1498
epoch: 1000
next table: 2304
cur table: 2257
epoch: 1000
next table: 1489
cur table: 1481
epoch: 1000
next table: 2386
cur table: 2304
epoch: 1000
next table: 1510
cur table: 1489
epoch: 1000
next table: 2484
cur table: 2386
epoch: 1000
next table: 1489
cur table: 1510
epoch: 1000
next table: 2078
cur table: 2484
epoch: 1000
next table: 1526
cur table: 1489
epoch: 1000
next table: 2414
cur table: 2078
epoch: 1000
next table: 1462
cur table: 1526
epoch: 1000
next table: 2448
cur table: 2414
epoch: 1000
next table: 1482
cur table: 1462
epoch: 1000
next table: 2443
cur table: 2448
epoch: 1000
next table: 1479
cur table: 1482
epoch: 1000
next table: 2103
cur table: 2443
epoch: 1000
next table: 1491
cur table: 1479
epoch: 1000
next table: 2412
cur table: 2103
epoch: 1000
next table: 2455
cur table: 2412
epoch: 1000
next table: 1461
cur table: 1491
epoch: 1000
next table: 2469
cur table: 2455
epoch: 1000
next table: 1449
cur table: 1461
epoch: 1000
next table: 2106
cur table: 2469
epoch: 1000
next table: 1474
cur table: 1449
epoch: 1000
next table: 2417
cur table: 2106
epoch: 1000
next table: 1495
cur table: 1474
epoch: 1000
next table: 2481
cur table: 2417
epoch: 1000
next table: 1470
cur table: 1495
epoch: 1000
next table: 2477
cur table: 2481
epoch: 1000
next table: 1434
cur table: 1470
epoch: 1000
next table: 2113
cur table: 2477
epoch: 1000
next table: 1452
cur table: 1434
epoch: 1000
next table: 2424
cur table: 2113
epoch: 1000
next table: 1468
cur table: 1452
epoch: 1000
next table: 2462
cur table: 2424
epoch: 1000
next table: 1468
cur table: 1468
epoch: 1000
next table: 2467
cur table: 2462
epoch: 1000
next table: 1441
cur table: 1468
epoch: 1000
next table: 2192
cur table: 2467
epoch: 1000
next table: 1444
cur table: 1441
epoch: 1000
next table: 2330
cur table: 2192
epoch: 1000
next table: 1455
cur table: 1444
epoch: 1000
next table: 2456
cur table: 2330
epoch: 1000
next table: 1480
cur table: 1455
epoch: 1000
next table: 2466
cur table: 2456
epoch: 1000
next table: 1441
cur table: 1480
epoch: 1000
next table: 2298
cur table: 2466
epoch: 1000
next table: 1446
cur table: 1441
epoch: 1000
next table: 2240
cur table: 2298
epoch: 1000
next table: 1491
cur table: 1446
epoch: 1000
next table: 2434
cur table: 2240
epoch: 1000
next table: 1484
cur table: 1491
epoch: 1000
next table: 2480
cur table: 2434
epoch: 1000
next table: 1431
cur table: 1484
epoch: 1000
next table: 2306
cur table: 2480
epoch: 1000
next table: 1443
cur table: 1431
epoch: 1000
next table: 2251
cur table: 2306
epoch: 1000
next table: 1456
cur table: 1443
epoch: 1000
next table: 2439
cur table: 2251
epoch: 1000
next table: 1477
cur table: 1456
epoch: 1000
next table: 2480
cur table: 2439
epoch: 1000
next table: 1433
cur table: 1477
epoch: 1000
next table: 2299
cur table: 2480
epoch: 1000
next table: 1436
cur table: 1433
epoch: 1000
next table: 2256
cur table: 2299
epoch: 1000
next table: 1478
cur table: 1436
epoch: 1000
next table: 2416
cur table: 2256
epoch: 1000
next table: 1469
cur table: 1478
epoch: 1000
next table: 2495
cur table: 2416
epoch: 1000
next table: 1435
cur table: 1469
epoch: 1000
next table: 2320
cur table: 2495
epoch: 1000
next table: 1434
cur table: 1435
epoch: 1000
next table: 1476
cur table: 1434
epoch: 1000
next table: 2266
cur table: 2320
epoch: 1000
next table: 1475
cur table: 1476
epoch: 1000
next table: 2422
cur table: 2266
epoch: 1000
next table: 1419
cur table: 1475
epoch: 1000
next table: 2483
cur table: 2422
epoch: 1000
next table: 1458
cur table: 1419
epoch: 1000
next table: 2307
cur table: 2483
epoch: 1000
next table: 1460
cur table: 1458
epoch: 1000
next table: 2227
cur table: 2307
epoch: 1000
next table: 1450
cur table: 1460
epoch: 1000
next table: 2435
cur table: 2227
epoch: 1000
next table: 1417
cur table: 1450
epoch: 1000
next table: 2472
cur table: 2435
epoch: 1000
next table: 1451
cur table: 1417
epoch: 1000
next table: 2342
cur table: 2472
epoch: 1000
next table: 1467
cur table: 1451
epoch: 1000
next table: 2197
cur table: 2342
epoch: 1000
next table: 1454
cur table: 1467
epoch: 1000
next table: 2467
cur table: 2197
epoch: 1000
next table: 1407
cur table: 1454
epoch: 1000
next table: 2460
cur table: 2467
epoch: 1000
next table: 1465
cur table: 1407
epoch: 1000
next table: 2377
cur table: 2460
epoch: 1000
next table: 1469
cur table: 1465
epoch: 1000
next table: 2177
cur table: 2377
epoch: 1000
next table: 1441
cur table: 1469
epoch: 1000
next table: 2484
cur table: 2177
epoch: 1000
next table: 1402
cur table: 1441
epoch: 1000
next table: 2457
cur table: 2484
epoch: 1000
next table: 1490
cur table: 1402
epoch: 1000
next table: 2421
cur table: 2457
epoch: 1000
next table: 1481
cur table: 1490
epoch: 1000
next table: 2152
cur table: 2421
epoch: 1000
next table: 1438
cur table: 1481
epoch: 1000
next table: 2433
cur table: 2152
epoch: 1000
next table: 1434
cur table: 1438
epoch: 1000
next table: 2457
cur table: 2433
epoch: 1000
next table: 1477
cur table: 1434
epoch: 1000
next table: 2451
cur table: 2457
epoch: 1000
next table: 1450
cur table: 1477
epoch: 1000
next table: 2138
cur table: 2451
epoch: 1000
next table: 1444
cur table: 1450
epoch: 1000
next table: 2416
cur table: 2138
epoch: 1000
next table: 1421
cur table: 1444
epoch: 1000
next table: 2462
cur table: 2416
epoch: 1000
next table: 1469
cur table: 1421
epoch: 1000
next table: 2472
cur table: 2462
epoch: 1000
next table: 1454
cur table: 1469
epoch: 1000
next table: 2125
cur table: 2472
epoch: 1000
next table: 1443
cur table: 1454
epoch: 1000
next table: 2426
cur table: 2125
epoch: 1000
next table: 1426
cur table: 1443
epoch: 1000
next table: 2489
cur table: 2426
epoch: 1000
next table: 1463
cur table: 1426
epoch: 1000
next table: 2467
cur table: 2489
epoch: 1000
next table: 1465
cur table: 1463
epoch: 1000
next table: 2129
cur table: 2467
epoch: 1000
next table: 1431
cur table: 1465
epoch: 1000
next table: 2432
cur table: 2129
epoch: 1000
next table: 1438
cur table: 1431
epoch: 1000
next table: 2466
cur table: 2432
epoch: 1000
next table: 1482
cur table: 1438
epoch: 1000
next table: 2470
cur table: 2466
epoch: 1000
next table: 1465
cur table: 1482
epoch: 1000
next table: 2303
cur table: 2470
epoch: 1000
next table: 1451
cur table: 1465
epoch: 1000
next table: 2216
cur table: 2303
epoch: 1000
next table: 1508
cur table: 1451
epoch: 1000
next table: 2084
cur table: 2216
epoch: 1000
next table: 1434
cur table: 1508
epoch: 1000
next table: 2649
cur table: 2084
epoch: 1000
next table: 1514
cur table: 1434
epoch: 1000
next table: 3464
cur table: 2649
epoch: 1000
next table: 1541
cur table: 1514
epoch: 1000
next table: 2689
cur table: 3464
epoch: 1000
next table: 1443
cur table: 1541
epoch: 1000
next table: 3170
cur table: 2689
epoch: 1000
next table: 1497
cur table: 1443
epoch: 1000
next table: 3328
cur table: 3170
epoch: 1000
next table: 1557
cur table: 1497
epoch: 1000
next table: 3248
cur table: 3328
epoch: 1000
next table: 1519
cur table: 1557
epoch: 1000
next table: 2635
cur table: 3248
epoch: 1000
next table: 1454
cur table: 1519
epoch: 1000
next table: 3128
cur table: 2635
epoch: 1000
next table: 1525
cur table: 1454
epoch: 1000
next table: 3329
cur table: 3128
epoch: 1000
next table: 1565
cur table: 1525
epoch: 1000
next table: 2681
cur table: 3329
epoch: 1000
next table: 1500
cur table: 1565
epoch: 1000
next table: 3180
cur table: 2681
epoch: 1000
next table: 1467
cur table: 1500
epoch: 1000
next table: 3473
cur table: 3180
epoch: 1000
next table: 1521
cur table: 1467
epoch: 1000
next table: 2761
cur table: 3473
epoch: 1000
next table: 1557
cur table: 1521
epoch: 1000
next table: 3111
cur table: 2761
epoch: 1000
next table: 1480
cur table: 1557
epoch: 1000
next table: 3179
cur table: 3111
epoch: 1000
next table: 3341
cur table: 3179
epoch: 1000
next table: 1472
cur table: 1480
epoch: 1000
next table: 2761
cur table: 3341
epoch: 1000
next table: 1515
cur table: 1472
epoch: 1000
next table: 3160
cur table: 2761
epoch: 1000
next table: 1518
cur table: 1515
epoch: 1000
next table: 3403
cur table: 3160
epoch: 1000
next table: 1484
cur table: 1518
epoch: 1000
next table: 2754
cur table: 3403
epoch: 1000
next table: 1493
cur table: 1484
epoch: 1000
next table: 3110
cur table: 2754
epoch: 1000
next table: 1539
cur table: 1493
epoch: 1000
next table: 3230
cur table: 3110
epoch: 1000
next table: 1572
cur table: 1539
epoch: 1000
next table: 3259
cur table: 3230
epoch: 1000
next table: 1433
cur table: 1572
epoch: 1000
next table: 2775
cur table: 3259
epoch: 1000
next table: 1520
cur table: 1433
epoch: 1000
next table: 3083
cur table: 2775
epoch: 1000
next table: 1527
cur table: 1520
epoch: 1000
next table: 3482
cur table: 3083
epoch: 1000
next table: 1542
cur table: 1527
epoch: 1000
next table: 2715
cur table: 3482
epoch: 1000
next table: 1388
cur table: 1542
epoch: 1000
next table: 3185
cur table: 2715
epoch: 1000
next table: 1513
cur table: 1388
epoch: 1000
next table: 3246
cur table: 3185
epoch: 1000
next table: 1562
cur table: 1513
epoch: 1000
next table: 3264
cur table: 3246
epoch: 1000
next table: 1532
cur table: 1562
epoch: 1000
next table: 2743
cur table: 3264
epoch: 1000
next table: 1449
cur table: 1532
epoch: 1000
next table: 3101
cur table: 2743
epoch: 1000
next table: 1526
cur table: 1449
epoch: 1000
next table: 3431
cur table: 3101
epoch: 1000
next table: 1558
cur table: 1526
epoch: 1000
next table: 2681
cur table: 3431
epoch: 1000
next table: 1484
cur table: 1558
epoch: 1000
next table: 3137
cur table: 2681
epoch: 1000
next table: 1458
cur table: 1484
epoch: 1000
next table: 3359
cur table: 3137
epoch: 1000
next table: 1504
cur table: 1458
epoch: 1000
next table: 3195
cur table: 3359
epoch: 1000
next table: 1554
cur table: 1504
epoch: 1000
next table: 2774
cur table: 3195
epoch: 1000
next table: 1459
cur table: 1554
epoch: 1000
next table: 3150
cur table: 2774
epoch: 1000
next table: 1504
cur table: 1459
epoch: 1000
next table: 3404
cur table: 3150
epoch: 1000
next table: 1534
cur table: 1504
epoch: 1000
next table: 2674
cur table: 3404
epoch: 1000
next table: 1528
cur table: 1534
epoch: 1000
next table: 3124
cur table: 2674
epoch: 1000
next table: 3363
cur table: 3124
epoch: 1000
next table: 1464
cur table: 1528
epoch: 1000
next table: 2744
cur table: 3363
epoch: 1000
next table: 1501
cur table: 1464
epoch: 1000
next table: 3138
cur table: 2744
epoch: 1000
next table: 1515
cur table: 1501
epoch: 1000
next table: 3203
cur table: 3138
epoch: 1000
next table: 1542
cur table: 1515
epoch: 1000
next table: 3437
cur table: 3203
epoch: 1000
next table: 1453
cur table: 1542
epoch: 1000
next table: 2671
cur table: 3437
epoch: 1000
next table: 1485
cur table: 1453
Heartbeat CPU 0 instructions: 50000000 cycles: 15094157 heartbeat IPC: 3.44105 cumulative IPC: 3.31254 (Simulation time: 0 hr 12 min 26 sec) 

Warmup complete CPU 0 instructions: 50000004 cycles: 15094158 (Simulation time: 0 hr 12 min 26 sec) 

epoch: 1000
next table: 3031
cur table: 2693
epoch: 1000
next table: 1518
cur table: 1449
epoch: 1000
next table: 3363
cur table: 3031
epoch: 1000
next table: 1443
cur table: 1518
epoch: 1000
next table: 3216
cur table: 3363
epoch: 1000
next table: 1426
cur table: 1443
epoch: 1000
next table: 2814
cur table: 3216
epoch: 1000
next table: 1470
cur table: 1426
epoch: 1000
next table: 3163
cur table: 2814
epoch: 1000
next table: 1463
cur table: 1470
epoch: 1000
next table: 3423
cur table: 3163
epoch: 1000
next table: 1435
cur table: 1463
epoch: 1000
next table: 2752
cur table: 3423
epoch: 1000
next table: 1436
cur table: 1435
[...]
cur table: 2004
epoch: 1000
next table: 1410
cur table: 1434
epoch: 1000
next table: 2008
cur table: 2014
epoch: 1000
next table: 1432
cur table: 1410
epoch: 1000
next table: 2011
cur table: 2008
epoch: 1000
next table: 1432
cur table: 1432
epoch: 1000
next table: 2010
cur table: 2011
epoch: 1000
next table: 1398
cur table: 1432
epoch: 1000
next table: 2007
cur table: 2010
epoch: 1000
next table: 1420
cur table: 1398
epoch: 1000
next table: 2015
cur table: 2007
epoch: 1000
next table: 1407
cur table: 1420
epoch: 1000
next table: 2009
cur table: 2015
epoch: 1000
next table: 1409
cur table: 1407
epoch: 1000
next table: 2017
cur table: 2009
epoch: 1000
next table: 1629
cur table: 1409
epoch: 1000
next table: 2027
cur table: 2017
epoch: 1000
next table: 2007
cur table: 1629
epoch: 1000
next table: 2007
cur table: 2027
epoch: 1000
next table: 1993
cur table: 2007
epoch: 1000
next table: 2015
cur table: 2007
epoch: 1000
next table: 2000
cur table: 1993
epoch: 1000
next table: 2010
cur table: 2015
epoch: 1000
next table: 1999
cur table: 2000
epoch: 1000
next table: 2019
cur table: 2010
epoch: 1000
next table: 2004
cur table: 1999
epoch: 1000
next table: 2007
cur table: 2019
epoch: 1000
next table: 1995
cur table: 2004
epoch: 1000
next table: 2023
cur table: 2007
epoch: 1000
next table: 2006
cur table: 1995
epoch: 1000
next table: 2015
cur table: 2023
epoch: 1000
next table: 2004
cur table: 2006
epoch: 1000
next table: 2013
cur table: 2015
epoch: 1000
next table: 2002
cur table: 2004
epoch: 1000
next table: 2010
cur table: 2013
epoch: 1000
next table: 2003
cur table: 2002
epoch: 1000
next table: 2015
cur table: 2010
epoch: 1000
next table: 1995
cur table: 2003
epoch: 1000
next table: 2014
cur table: 2015
epoch: 1000
next table: 1999
cur table: 1995
epoch: 1000
next table: 2013
cur table: 2014
epoch: 1000
next table: 2005
cur table: 1999
epoch: 1000
next table: 2008
cur table: 2013
epoch: 1000
next table: 1993
cur table: 2005
epoch: 1000
next table: 2020
cur table: 2008
epoch: 1000
next table: 2008
cur table: 1993
epoch: 1000
next table: 2011
cur table: 2020
epoch: 1000
next table: 1995
cur table: 2008
epoch: 1000
next table: 2011
cur table: 2011
Heartbeat CPU 0 instructions: 100000000 cycles: 86924780 heartbeat IPC: 0.595503 cumulative IPC: 0.696082 (Simulation time: 0 hr 24 min 58 sec) 
Finished CPU 0 instructions: 50000002 cycles: 71830625 cumulative IPC: 0.696082 (Simulation time: 0 hr 24 min 58 sec) 

ChampSim completed all CPUs

Region of Interest Statistics

CPU 0 cumulative IPC: 0.696082 instructions: 50000002 cycles: 71830625
ITLB TOTAL     ACCESS:    7546266  HIT:    7546194  MISS:         72  HIT %:     99.999  MISS %: 0.000954114   MPKI: 0.00144
ITLB LOAD TRANSLATION ACCESS:    7546266  HIT:    7546194  MISS:         72  HIT %:     99.999  MISS %: 0.000954114   MPKI: 0.00144
ITLB PREFETCH  REQUESTED:          0  ISSUED:          0  USEFUL:          0  USELESS:          0
ITLB USEFUL LOAD PREFETCHES:          0 PREFETCH ISSUED TO LOWER LEVEL:          0  ACCURACY: -nan
ITLB TIMELY PREFETCHES:          0 LATE PREFETCHES: 0 DROPPED PREFETCHES: 0
ITLB PREFETCHES SAME FILL-ORIGIN LEVEL: 0 DIFFERENT FILL-ORIGIN LEVEL: 0
ITLB AVERAGE MISS LATENCY: 230.417 cycles
ITLB RQ	ACCESS:    9397938	FORWARD:          0	MERGED:    1851648	TO_CACHE:    7546290

Revised Interactions: positive negative neutral
ITLB_interactions 0 0 0 -nan -nan -nan
DTLB TOTAL     ACCESS:   14421228  HIT:   14276175  MISS:     145053  HIT %:    98.9942  MISS %:    1.00583   MPKI: 2.90106
DTLB LOAD TRANSLATION ACCESS:   14421228  HIT:   14276175  MISS:     145053  HIT %:    98.9942  MISS %:    1.00583   MPKI: 2.90106
DTLB PREFETCH  REQUESTED:          0  ISSUED:          0  USEFUL:          0  USELESS:          0
DTLB USEFUL LOAD PREFETCHES:          0 PREFETCH ISSUED TO LOWER LEVEL:          0  ACCURACY: -nan
DTLB TIMELY PREFETCHES:          0 LATE PREFETCHES: 0 DROPPED PREFETCHES: 0
DTLB PREFETCHES SAME FILL-ORIGIN LEVEL: 0 DIFFERENT FILL-ORIGIN LEVEL: 0
DTLB AVERAGE MISS LATENCY: 21.1665 cycles
DTLB RQ	ACCESS:   16323539	FORWARD:          0	MERGED:    1881250	TO_CACHE:   14442289

Revised Interactions: positive negative neutral
DTLB_interactions 0 0 0 -nan -nan -nan
STLB TOTAL     ACCESS:     145125  HIT:     129868  MISS:      15257  HIT %:     89.487  MISS %:     10.513   MPKI: 0.30514
STLB LOAD TRANSLATION ACCESS:     145125  HIT:     129868  MISS:      15257  HIT %:     89.487  MISS %:     10.513   MPKI: 0.30514
STLB PREFETCH  REQUESTED:          0  ISSUED:          0  USEFUL:          0  USELESS:          0
STLB USEFUL LOAD PREFETCHES:          0 PREFETCH ISSUED TO LOWER LEVEL:          0  ACCURACY: -nan
STLB TIMELY PREFETCHES:          0 LATE PREFETCHES: 0 DROPPED PREFETCHES: 0
STLB PREFETCHES SAME FILL-ORIGIN LEVEL: 0 DIFFERENT FILL-ORIGIN LEVEL: 0
STLB AVERAGE MISS LATENCY: 115.981 cycles
STLB RQ	ACCESS:     145125	FORWARD:          0	MERGED:          0	TO_CACHE:     145125

Revised Interactions: positive negative neutral
STLB_interactions 0 0 0 -nan -nan -nan
STLB Hit, L1D data hit: 0
STLB Hit, L2C data hit: 0
STLB Hit, LLC data hit: 0
STLB Hit, LLC data miss: 0
STLB STLB hints to L2: 0
L1D TOTAL     ACCESS:   15349437  HIT:   13647593  MISS:    1701844  HIT %:    88.9127  MISS %:    11.0873   MPKI: 34.0369
L1D LOAD      ACCESS:   12334168  HIT:   10847594  MISS:    1486574  HIT %:    87.9475  MISS %:    12.0525   MPKI: 29.7315
L1D RFO       ACCESS:    3015269  HIT:    2799999  MISS:     215270  HIT %:    92.8607  MISS %:    7.13933   MPKI: 4.3054
L1D PREFETCH  REQUESTED:          0  ISSUED:          0  USEFUL:          0  USELESS:          0
L1D USEFUL LOAD PREFETCHES:          0 PREFETCH ISSUED TO LOWER LEVEL:          0  ACCURACY: -nan
L1D TIMELY PREFETCHES:          0 LATE PREFETCHES: 0 DROPPED PREFETCHES: 0
L1D PREFETCHES SAME FILL-ORIGIN LEVEL: 0 DIFFERENT FILL-ORIGIN LEVEL: 0
L1D AVERAGE MISS LATENCY: 72.1248 cycles
L1D RQ	ACCESS:   16696923	FORWARD:          0	MERGED:    3849640	TO_CACHE:   12838619
L1D WQ	ACCESS:    3489006	FORWARD:       8664	MERGED:       4086	TO_CACHE:    3484920

Revised Interactions: positive negative neutral
L1D_interactions 0 0 0 -nan -nan -nan
L1D UNIQUE REGIONS ACCESSED: 0
L1D REGIONS CONFLICTS: 0
L1D Cross Page Prefetch Requests: 0
L1D Same Page Prefetch Requests: 0
L1D ROI Sum of L1D PQ occupancy: 0
L1D PREFETCHES PUSHED FROM L2C: 0
L1I TOTAL     ACCESS:    9396578  HIT:    9393800  MISS:       2778  HIT %:    99.9704  MISS %:   0.029564   MPKI: 0.05556
L1I LOAD      ACCESS:    9396578  HIT:    9393800  MISS:       2778  HIT %:    99.9704  MISS %:   0.029564   MPKI: 0.05556
L1I PREFETCH  REQUESTED:          0  ISSUED:          0  USEFUL:          0  USELESS:          0
L1I USEFUL LOAD PREFETCHES:          0 PREFETCH ISSUED TO LOWER LEVEL:          0  ACCURACY: -nan
L1I TIMELY PREFETCHES:          0 LATE PREFETCHES: 0 DROPPED PREFETCHES: 0
L1I PREFETCHES SAME FILL-ORIGIN LEVEL: 0 DIFFERENT FILL-ORIGIN LEVEL: 0
L1I AVERAGE MISS LATENCY: 218.226 cycles
L1I RQ	ACCESS:   12972763	FORWARD:          0	MERGED:    3574825	TO_CACHE:    9397938

Revised Interactions: positive negative neutral
L1I_interactions 0 0 0 -nan -nan -nan
BTB TOTAL     ACCESS:    2203353  HIT:    2197119  MISS:       6234  HIT %:    99.7171  MISS %:   0.282932   MPKI: 0.12468
BTB BRANCH_DIRECT_JUMP	ACCESS:       3916  HIT:       3875  MISS:         41
BTB BRANCH_INDIRECT	ACCESS:          0  HIT:          0  MISS:          0
BTB BRANCH_CONDITIONAL	ACCESS:    2181745  HIT:    2181273  MISS:        472
BTB BRANCH_DIRECT_CALL	ACCESS:       8847  HIT:       8610  MISS:        237
BTB BRANCH_INDIRECT_CALL	ACCESS:          0  HIT:          0  MISS:          0
BTB BRANCH_RETURN	ACCESS:       8845  HIT:       3361  MISS:       5484
BTB BRANCH_OTHER ACCESS:          0  HIT:          0  MISS:          0

L2C TOTAL     ACCESS:    4114028  HIT:    2819853  MISS:    1294175  HIT %:    68.5424  MISS %:    31.4576   MPKI: 25.8835
L2C LOAD      ACCESS:    1489326  HIT:     890140  MISS:     599186  HIT %:     59.768  MISS %:     40.232   MPKI: 11.9837
L2C DATA LOAD MPKI: 11.9282
L2C INSTRUCTION LOAD MPKI: 0.05556
L2C RFO       ACCESS:     215266  HIT:      90399  MISS:     124867  HIT %:    41.9941  MISS %:    58.0059   MPKI: 2.49734
L2C PREFETCH  ACCESS:    1793295  HIT:    1232457  MISS:     560838  HIT %:    68.7258  MISS %:    31.2742   MPKI: 11.2168
L2C DATA PREFETCH MPKI: 11.2168
L2C INSTRUCTION PREFETCH MPKI: 0
L2C WRITEBACK ACCESS:     600769  HIT:     594210  MISS:       6559  HIT %:    98.9082  MISS %:    1.09177   MPKI: 0.13118
L2C LOAD TRANSLATION ACCESS:      15372  HIT:      12647  MISS:       2725  HIT %:     82.273  MISS %:     17.727   MPKI: 0.0545
L2C PREFETCH  REQUESTED:    7482645  ISSUED:    6497594  USEFUL:     553609  USELESS:       7266
L2C USEFUL LOAD PREFETCHES:     553609 PREFETCH ISSUED TO LOWER LEVEL:    5067744  ACCURACY: 10.9242
L2C TIMELY PREFETCHES:     553609 LATE PREFETCHES: 80875 DROPPED PREFETCHES: 0
L2C PREFETCHES SAME FILL-ORIGIN LEVEL: 642519 DIFFERENT FILL-ORIGIN LEVEL: 4425225
L2C AVERAGE MISS LATENCY: 97.3509 cycles
L2C RQ	ACCESS:    1719999	FORWARD:          0	MERGED:          0	TO_CACHE:    1719969
L2C WQ	ACCESS:     600773	FORWARD:         96	MERGED:          0	TO_CACHE:     600773
L2C PQ	ACCESS:    6497594	FORWARD:          0	MERGED:     151507	TO_CACHE:    6346021

Revised Interactions: positive negative neutral
L2C_interactions 549065 8206 7367 97.2419 1.45332 1.30473
L2C Instructions Evicting Data 2763
L2C Translations Evicting Data 2717
L2C Data Evicting Data 1276687
L2C Instructions Evicting Instructions 8
L2C Translations Evicting Instructions 4
L2C Data Evicting Instructions 2759
L2C Instructions Evicting Translations 7
L2C Translations Evicting Translations 4
L2C Data Evicting Translations 2667
L2C Dense regions hint from L2: 0
PSCL5 TOTAL     ACCESS:      15257  HIT:      15257  MISS:          0  HIT %:        100  MISS %:          0   MPKI: 0
PSCL5 LOAD TRANSLATION ACCESS:      15257  HIT:      15257  MISS:          0  HIT %:        100  MISS %:          0   MPKI: 0
PSCL5 PREFETCH  REQUESTED:          0  ISSUED:          0  USEFUL:          0  USELESS:          0
PSCL5 USEFUL LOAD PREFETCHES:          0 PREFETCH ISSUED TO LOWER LEVEL:          0  ACCURACY: -nan
PSCL5 TIMELY PREFETCHES:          0 LATE PREFETCHES: 0 DROPPED PREFETCHES: 0
PSCL5 PREFETCHES SAME FILL-ORIGIN LEVEL: 0 DIFFERENT FILL-ORIGIN LEVEL: 0

Revised Interactions: positive negative neutral
PSCL5_interactions 0 0 0 -nan -nan -nan
PSCL4 TOTAL     ACCESS:      15257  HIT:      15257  MISS:          0  HIT %:        100  MISS %:          0   MPKI: 0
PSCL4 LOAD TRANSLATION ACCESS:      15257  HIT:      15257  MISS:          0  HIT %:        100  MISS %:          0   MPKI: 0
PSCL4 PREFETCH  REQUESTED:          0  ISSUED:          0  USEFUL:          0  USELESS:          0
PSCL4 USEFUL LOAD PREFETCHES:          0 PREFETCH ISSUED TO LOWER LEVEL:          0  ACCURACY: -nan
PSCL4 TIMELY PREFETCHES:          0 LATE PREFETCHES: 0 DROPPED PREFETCHES: 0
PSCL4 PREFETCHES SAME FILL-ORIGIN LEVEL: 0 DIFFERENT FILL-ORIGIN LEVEL: 0

Revised Interactions: positive negative neutral
PSCL4_interactions 0 0 0 -nan -nan -nan
PSCL3 TOTAL     ACCESS:      15257  HIT:      15257  MISS:          0  HIT %:        100  MISS %:          0   MPKI: 0
PSCL3 LOAD TRANSLATION ACCESS:      15257  HIT:      15257  MISS:          0  HIT %:        100  MISS %:          0   MPKI: 0
PSCL3 PREFETCH  REQUESTED:          0  ISSUED:          0  USEFUL:          0  USELESS:          0
PSCL3 USEFUL LOAD PREFETCHES:          0 PREFETCH ISSUED TO LOWER LEVEL:          0  ACCURACY: -nan
PSCL3 TIMELY PREFETCHES:          0 LATE PREFETCHES: 0 DROPPED PREFETCHES: 0
PSCL3 PREFETCHES SAME FILL-ORIGIN LEVEL: 0 DIFFERENT FILL-ORIGIN LEVEL: 0

Revised Interactions: positive negative neutral
PSCL3_interactions 0 0 0 -nan -nan -nan
PSCL2 TOTAL     ACCESS:      15257  HIT:      15142  MISS:        115  HIT %:    99.2462  MISS %:   0.753752   MPKI: 0.0023
PSCL2 LOAD TRANSLATION ACCESS:      15257  HIT:      15142  MISS:        115  HIT %:    99.2462  MISS %:   0.753752   MPKI: 0.0023
PSCL2 PREFETCH  REQUESTED:          0  ISSUED:          0  USEFUL:          0  USELESS:          0
PSCL2 USEFUL LOAD PREFETCHES:          0 PREFETCH ISSUED TO LOWER LEVEL:          0  ACCURACY: -nan
PSCL2 TIMELY PREFETCHES:          0 LATE PREFETCHES: 0 DROPPED PREFETCHES: 0
PSCL2 PREFETCHES SAME FILL-ORIGIN LEVEL: 0 DIFFERENT FILL-ORIGIN LEVEL: 0

Revised Interactions: positive negative neutral
PSCL2_interactions 0 0 0 -nan -nan -nan
LLC TOTAL     ACCESS:    5148937  HIT:    3866124  MISS:    1282813  HIT %:    75.0859  MISS %:    24.9141   MPKI: 25.6563
LLC LOAD      ACCESS:     518316  HIT:     400436  MISS:     117880  HIT %:    77.2571  MISS %:    22.7429   MPKI: 2.3576
LLC RFO       ACCESS:     124862  HIT:       5592  MISS:     119270  HIT %:    4.47854  MISS %:    95.5215   MPKI: 2.3854
LLC PREFETCH  ACCESS:    4063057  HIT:    3030869  MISS:    1032188  HIT %:    74.5958  MISS %:    25.4042   MPKI: 20.6438
LLC WRITEBACK ACCESS:     439977  HIT:     428995  MISS:      10982  HIT %:     97.504  MISS %:    2.49604   MPKI: 0.21964
LLC LOAD TRANSLATION ACCESS:       2725  HIT:        232  MISS:       2493  HIT %:    8.51376  MISS %:    91.4862   MPKI: 0.04986
LLC PREFETCH  REQUESTED:          0  ISSUED:          0  USEFUL:     382086  USELESS:     658791
LLC USEFUL LOAD PREFETCHES:     382086 PREFETCH ISSUED TO LOWER LEVEL:    1072169  ACCURACY: 35.6367
LLC TIMELY PREFETCHES:     382086 LATE PREFETCHES: 39982 DROPPED PREFETCHES: 0
LLC PREFETCHES SAME FILL-ORIGIN LEVEL: 1044376 DIFFERENT FILL-ORIGIN LEVEL: 0
LLC AVERAGE MISS LATENCY: 293.704 cycles
LLC RQ	ACCESS:     645906	FORWARD:          0	MERGED:          0	TO_CACHE:     645906
LLC WQ	ACCESS:     439987	FORWARD:          2	MERGED:          0	TO_CACHE:     439987
LLC PQ	ACCESS:    5064527	FORWARD:          0	MERGED:      49099	TO_CACHE:    5015426

Revised Interactions: positive negative neutral
LLC_interactions 363774 668354 109891 31.8536 58.5239 9.62252
LLC Dense regions hint to LLC: 0

RAW hits: 68799
Loads Generated: 16765722
Loads sent to L1D: 16696923
Stores Generated: 3489005
Stores sent to L1D: 3489006
Major fault: 0 Minor fault: 7750
Allocated PAGES: 7750
 All Calls: 2378229
 Critical Calls: 2378229
------------------
Depth Distribution
------------------
depth 0: 0
depth 1: 2109002
depth 2: 1939635
depth 3: 1767702
depth 4: 1602735
depth 5: 1321792
depth 6: 1017198
depth 7: 658408
depth 8: 402946
depth 9: 181334
depth 10: 81428
depth 11: 44127
depth 12: 21982
depth 13: 6191
depth 14: 393
depth 15: 327
depth 16: 0
depth 17: 0
depth 18: 0
depth 19: 0
depth 20: 0
depth 21: 0
depth 22: 0
depth 23: 0
depth 24: 0
depth 25: 0
depth 26: 0
depth 27: 0
depth 28: 0
depth 29: 0
Total: 11155200
-----------------------------
-----------------------------
	Captured at Filter
-----------------------------
depth 0: 0
depth 1: 72393
depth 2: 68060
depth 3: 64942
depth 4: 60375
depth 5: 48866
depth 6: 34767
depth 7: 18728
depth 8: 10336
depth 9: 3755
depth 10: 752
depth 11: 374
depth 12: 162
depth 13: 47
depth 14: 6
depth 15: 3
depth 16: 0
depth 17: 0
depth 18: 0
depth 19: 0
depth 20: 0
depth 21: 0
depth 22: 0
depth 23: 0
depth 24: 0
depth 25: 0
depth 26: 0
depth 27: 0
depth 28: 0
depth 29: 0
-----------------------------
-----------------------------
		Lost at Page
-----------------------------
depth 0: 0
depth 1: 51520
depth 2: 85511
depth 3: 112697
depth 4: 138929
depth 5: 148716
depth 6: 141041
depth 7: 106788
depth 8: 78270
depth 9: 44257
depth 10: 21539
depth 11: 12567
depth 12: 6635
depth 13: 2012
depth 14: 135
depth 15: 132
depth 16: 0
depth 17: 0
depth 18: 0
depth 19: 0
depth 20: 0
depth 21: 0
depth 22: 0
depth 23: 0
depth 24: 0
depth 25: 0
depth 26: 0
depth 27: 0
depth 28: 0
depth 29: 0
-----------------------------
-----------------------------
	Lost due to PQ Size
-----------------------------
1730944
-----------------------------
ST read accesses: 1460500
ST write accesses: 26048
PT read accesses: 48673244
PT write accesses: 2180365
FILTER read accesses: 10509463
FILTER write accesses: 2915674
GHR read accesses: 3052392
GHR write accesses: 500794
GHR counter read accesses: 41690040
GHR counter write accesses: 3198543
ST tag read accesses: 583047633
ST tag write accesses: 21901318

DRAM Statistics
 CHANNEL 0
 RQ ROW_BUFFER_HIT:     317769  ROW_BUFFER_MISS:     953929
 DBUS_CONGESTED:        873
 WQ ROW_BUFFER_HIT:      74060  ROW_BUFFER_MISS:     330621  FULL:          0

 AVG_CONGESTED_CYCLE: 4
 All warmup complete: 2
Channel 0 Bank busy for read cycles: 0
Channel 0 Bank busy for write cycles: 0
Channel 0
Rank 0
0banks busy for read cycles: 14142725
0banks busy for write cycles: 17349
1banks busy for read cycles: 9308819
1banks busy for write cycles: 2466002
2banks busy for read cycles: 6891614
2banks busy for write cycles: 1263312
3banks busy for read cycles: 5724194
3banks busy for write cycles: 821384
4banks busy for read cycles: 4948904
4banks busy for write cycles: 602965
5banks busy for read cycles: 4434904
5banks busy for write cycles: 479715
6banks busy for read cycles: 3872151
6banks busy for write cycles: 466671
7banks busy for read cycles: 3023342
7banks busy for write cycles: 1085156
8banks busy for read cycles: 4860588
8banks busy for write cycles: 7420831

CPU 0 Branch Prediction Accuracy: 94.3511% MPKI: 2.76312 Average ROB Occupancy at Mispredict: 74.3562
Branch types
NOT_BRANCH: 47553996 95.108%
BRANCH_DIRECT_JUMP: 3916 0.007832%
BRANCH_INDIRECT: 0 0%
BRANCH_CONDITIONAL: 2424086 4.84817%
BRANCH_DIRECT_CALL: 8847 0.017694%
BRANCH_INDIRECT_CALL: 0 0%
BRANCH_RETURN: 8845 0.01769%
BRANCH_OTHER: 0 0%

@sumon_overall_L1D         0         0         0         0         0         0         0
@Sumon_Early_by_class_L1D         0         0         0         0
@Sumon_Late_by_class_L1D         0         0         0         0

@Sumon_Early_by_cycle_L1D         0         0         0         0         0         0         0         0         0         0         0         0
@Sumon_Late_by_cycle_L1D         0         0         0         0         0         0
@Sumon_Early_stream_L1D         0         0         0         0         0         0         0         0         0         0         0         0
@Sumon_Early_CS_L1D         0         0         0         0         0         0         0         0         0         0         0         0
@Sumon_Early_CPLX_L1D         0         0         0         0         0         0         0         0         0         0         0         0
@Sumon_Late_stream_L1D         0         0         0         0         0         0
@Sumon_Late_CS_L1D         0         0         0         0         0         0
@Sumon_Late_CPLX_L1D         0         0         0         0         0         0
@sumon_overall_L2C    553609     80875         0      7266    560838   6497594   7482645
@Sumon_Early_by_class_L2C         0         0         0         0
@Sumon_Late_by_class_L2C         0         0         0         0

@Sumon_Early_by_cycle_L2C    189740    205353    116658     17955      4080      6596      6064      4997       319       264      1008       575
@Sumon_Late_by_cycle_L2C     17376     22401      9999      7395     20914      2790
@Sumon_Early_stream_L2C         0         0         0         0         0         0         0         0         0         0         0         0
@Sumon_Early_CS_L2C         0         0         0         0         0         0         0         0         0         0         0         0
@Sumon_Early_CPLX_L2C         0         0         0         0         0         0         0         0         0         0         0         0
@Sumon_Late_stream_L2C         0         0         0         0         0         0
@Sumon_Late_CS_L2C         0         0         0         0         0         0
@Sumon_Late_CPLX_L2C         0         0         0         0         0         0
DRAM PAGES: 1048576
Allocated PAGES: 7750
