Initialize SIGNATURE TABLE
ST_SET: 1
ST_WAY: 256
ST_TAG_BIT: 16
ST_TAG_MASK: ffff

Initialize PATTERN TABLE
PT_SET: 512
PT_WAY: 4
SIG_DELTA_BIT: 7
C_SIG_BIT: 4
C_DELTA_BIT: 4

Initialize PREFETCH FILTER
FILTER_SET: 1024

*** ChampSim Multicore Out-of-Order Simulator ***

Warmup Instructions: 50000000
Simulation Instructions: 50000000
Number of CPUs: 1
LLC sets: 2048
LLC ways: 16
Off-chip DRAM Size: 4096 MB Channels: 1 Width: 64-bit Data Rate: 6400 MT/s
CPU 0 runs ../../biswa/SPEC2017Traces/623.xalancbmk_s-10B.champsimtrace.xz
.xz
CPU 0 Bimodal branch predictor
BTB has LRU replacement policy
ITLB has LRU replacement policy
DTLB has LRU replacement policy
STLB has LRU replacement policy
L1I has LRU replacement policy
L1D has LRU replacement policy
ST_WAYS: 256
PT_SETS: 512
Initialize DRRIP state for L2C
Initialize DRRIP state for LLC
epoch: 1000
next table: 2941
cur table: 9978
epoch: 1000
next table: 2560
cur table: 2941
epoch: 1000
next table: 2371
cur table: 2560
epoch: 1000
next table: 2288
cur table: 2371
epoch: 1000
next table: 2225
cur table: 2288
epoch: 1000
next table: 2197
cur table: 2225
epoch: 1000
next table: 2187
cur table: 2197
epoch: 1000
next table: 2204
cur table: 2187
epoch: 1000
next table: 2184
cur table: 2204
epoch: 1000
next table: 2171
cur table: 2184
epoch: 1000
next table: 2188
cur table: 2171
epoch: 1000
next table: 2183
cur table: 2188
epoch: 1000
next table: 2100
cur table: 2183
epoch: 1000
next table: 3766
cur table: 2100
epoch: 1000
next table: 4172
cur table: 21381
epoch: 1000
next table: 2083
cur table: 3766
epoch: 1000
next table: 6046
cur table: 2083
epoch: 1000
next table: 3021
cur table: 4172
epoch: 1000
next table: 4582
cur table: 6046
epoch: 1000
next table: 2190
cur table: 4582
epoch: 1000
next table: 2434
cur table: 3021
epoch: 1000
next table: 2192
cur table: 2190
epoch: 1000
next table: 2141
cur table: 2434
epoch: 1000
next table: 2182
cur table: 2192
epoch: 1000
next table: 2048
cur table: 2141
epoch: 1000
next table: 2171
cur table: 2182
epoch: 1000
next table: 2050
cur table: 2048
epoch: 1000
next table: 2179
cur table: 2171
epoch: 1000
next table: 1895
cur table: 2050
epoch: 1000
next table: 2183
cur table: 2179
epoch: 1000
next table: 1924
cur table: 1895
epoch: 1000
next table: 2170
cur table: 2183
epoch: 1000
next table: 1836
cur table: 1924
epoch: 1000
next table: 2168
cur table: 2170
epoch: 1000
next table: 1854
cur table: 1836
epoch: 1000
next table: 2177
cur table: 2168
epoch: 1000
next table: 1817
cur table: 1854
epoch: 1000
next table: 1770
cur table: 1817
epoch: 1000
next table: 2161
cur table: 2177
epoch: 1000
next table: 1756
cur table: 1770
epoch: 1000
next table: 2165
cur table: 2161
epoch: 1000
next table: 1769
cur table: 1756
epoch: 1000
next table: 2174
cur table: 2165
epoch: 1000
next table: 1761
cur table: 1769
epoch: 1000
next table: 1731
cur table: 1761
epoch: 1000
next table: 2171
cur table: 2174
epoch: 1000
next table: 1735
cur table: 1731
epoch: 1000
next table: 2174
cur table: 2171
epoch: 1000
next table: 1734
cur table: 1735
epoch: 1000
next table: 2177
cur table: 2174
epoch: 1000
next table: 1730
cur table: 1734
epoch: 1000
next table: 1716
cur table: 1730
epoch: 1000
next table: 2177
cur table: 2177
epoch: 1000
next table: 1732
cur table: 1716
epoch: 1000
next table: 2156
cur table: 2177
epoch: 1000
next table: 1720
cur table: 1732
epoch: 1000
next table: 2166
cur table: 2156
epoch: 1000
next table: 1732
cur table: 1720
epoch: 1000
next table: 1726
cur table: 1732
epoch: 1000
next table: 2173
cur table: 2166
epoch: 1000
next table: 1708
cur table: 1726
epoch: 1000
next table: 2173
cur table: 2173
epoch: 1000
next table: 1705
cur table: 1708
epoch: 1000
next table: 2166
cur table: 2173
epoch: 1000
next table: 1719
cur table: 1705
epoch: 1000
next table: 1701
cur table: 1719
epoch: 1000
next table: 2173
cur table: 2166
epoch: 1000
next table: 1742
cur table: 1701
epoch: 1000
next table: 2164
cur table: 2173
epoch: 1000
next table: 1754
cur table: 1742
epoch: 1000
next table: 2178
cur table: 2164
epoch: 1000
next table: 1782
cur table: 1754
epoch: 1000
next table: 1804
cur table: 1782
epoch: 1000
next table: 2172
cur table: 2178
epoch: 1000
next table: 1765
cur table: 1804
epoch: 1000
next table: 2178
cur table: 2172
epoch: 1000
next table: 1774
cur table: 1765
epoch: 1000
next table: 2183
cur table: 2178
epoch: 1000
next table: 1778
cur table: 1774
epoch: 1000
next table: 2166
cur table: 2183
epoch: 1000
next table: 1790
cur table: 1778
epoch: 1000
next table: 1813
cur table: 1790
epoch: 1000
next table: 2165
cur table: 2166
epoch: 1000
next table: 1772
cur table: 1813
epoch: 1000
next table: 2168
cur table: 2165
epoch: 1000
next table: 1806
cur table: 1772
epoch: 1000
next table: 2164
cur table: 2168
epoch: 1000
next table: 1818
cur table: 1806
epoch: 1000
next table: 2174
cur table: 2164
epoch: 1000
next table: 1784
cur table: 1818
epoch: 1000
next table: 1779
cur table: 1784
epoch: 1000
next table: 2180
cur table: 2174
epoch: 1000
next table: 1789
cur table: 1779
epoch: 1000
next table: 2165
cur table: 2180
epoch: 1000
next table: 1774
cur table: 1789
epoch: 1000
next table: 2175
cur table: 2165
epoch: 1000
next table: 1773
cur table: 1774
epoch: 1000
next table: 2174
cur table: 2175
epoch: 1000
next table: 1788
cur table: 1773
epoch: 1000
next table: 1827
cur table: 1788
epoch: 1000
next table: 2169
cur table: 2174
epoch: 1000
next table: 1817
cur table: 1827
epoch: 1000
next table: 2169
cur table: 2169
epoch: 1000
next table: 1814
cur table: 1817
epoch: 1000
next table: 2179
cur table: 2169
epoch: 1000
next table: 1823
cur table: 1814
epoch: 1000
next table: 2171
cur table: 2179
epoch: 1000
next table: 1767
cur table: 1823
epoch: 1000
next table: 2174
cur table: 2171
epoch: 1000
next table: 1775
cur table: 1767
epoch: 1000
next table: 1791
cur table: 1775
epoch: 1000
next table: 2162
cur table: 2174
epoch: 1000
next table: 1766
cur table: 1791
epoch: 1000
next table: 2176
cur table: 2162
epoch: 1000
next table: 1779
cur table: 1766
epoch: 1000
next table: 2155
cur table: 2176
epoch: 1000
next table: 1876
cur table: 1779
epoch: 1000
next table: 2142
cur table: 2155
epoch: 1000
next table: 1968
cur table: 1876
epoch: 1000
next table: 2357
cur table: 2142
epoch: 1000
next table: 1696
cur table: 1968
epoch: 1000
next table: 2118
cur table: 2357
epoch: 1000
next table: 1972
cur table: 1696
epoch: 1000
next table: 3930
cur table: 2118
epoch: 1000
next table: 2042
cur table: 1972
epoch: 1000
next table: 2173
cur table: 3930
epoch: 1000
next table: 2006
cur table: 2042
epoch: 1000
next table: 2067
cur table: 2173
epoch: 1000
next table: 1891
cur table: 2006
epoch: 1000
next table: 2075
cur table: 2067
epoch: 1000
next table: 1831
cur table: 1891
epoch: 1000
next table: 2078
cur table: 2075
epoch: 1000
next table: 1846
cur table: 1831
epoch: 1000
next table: 1840
cur table: 1846
epoch: 1000
next table: 2080
cur table: 2078
epoch: 1000
next table: 1817
cur table: 1840
epoch: 1000
next table: 2077
cur table: 2080
epoch: 1000
next table: 1856
cur table: 1817
epoch: 1000
next table: 2065
cur table: 2077
epoch: 1000
next table: 1835
cur table: 1856
epoch: 1000
next table: 2063
cur table: 2065
epoch: 1000
next table: 1852
cur table: 1835
epoch: 1000
next table: 2314
cur table: 2063
epoch: 1000
next table: 2429
cur table: 2314
epoch: 1000
next table: 2354
cur table: 2429
epoch: 1000
next table: 2334
cur table: 2354
epoch: 1000
next table: 2415
cur table: 2334
epoch: 1000
next table: 5841
cur table: 1852
epoch: 1000
next table: 11552
cur table: 2415
epoch: 1000
next table: 8569
cur table: 11552
epoch: 1000
next table: 3029
cur table: 5841
epoch: 1000
next table: 2166
cur table: 8569
epoch: 1000
next table: 1909
cur table: 3029
epoch: 1000
next table: 1912
cur table: 1909
epoch: 1000
next table: 2052
cur table: 2166
epoch: 1000
next table: 1779
cur table: 1912
epoch: 1000
next table: 2134
cur table: 2052
epoch: 1000
next table: 1757
cur table: 1779
epoch: 1000
next table: 2168
cur table: 2134
epoch: 1000
next table: 1778
cur table: 1757
epoch: 1000
next table: 2176
cur table: 2168
epoch: 1000
next table: 1777
cur table: 1778
epoch: 1000
next table: 1747
cur table: 1777
epoch: 1000
next table: 2179
cur table: 2176
epoch: 1000
next table: 1755
cur table: 1747
epoch: 1000
next table: 2175
cur table: 2179
epoch: 1000
next table: 1751
cur table: 1755
epoch: 1000
next table: 2156
cur table: 2175
epoch: 1000
next table: 1782
cur table: 1751
epoch: 1000
next table: 1755
cur table: 1782
epoch: 1000
next table: 2181
cur table: 2156
epoch: 1000
next table: 1754
cur table: 1755
epoch: 1000
next table: 2165
cur table: 2181
epoch: 1000
next table: 1740
cur table: 1754
epoch: 1000
next table: 2171
cur table: 2165
epoch: 1000
next table: 1743
cur table: 1740
epoch: 1000
next table: 2178
cur table: 2171
epoch: 1000
next table: 1759
cur table: 1743
epoch: 1000
next table: 1773
cur table: 1759
epoch: 1000
next table: 2167
cur table: 2178
epoch: 1000
next table: 1748
cur table: 1773
epoch: 1000
next table: 2161
cur table: 2167
epoch: 1000
next table: 1757
cur table: 1748
epoch: 1000
next table: 2174
cur table: 2161
epoch: 1000
next table: 1743
cur table: 1757
epoch: 1000
next table: 1744
cur table: 1743
epoch: 1000
next table: 2173
cur table: 2174
epoch: 1000
next table: 1772
cur table: 1744
epoch: 1000
next table: 2164
cur table: 2173
epoch: 1000
next table: 1766
cur table: 1772
epoch: 1000
next table: 2159
cur table: 2164
epoch: 1000
next table: 1760
cur table: 1766
epoch: 1000
next table: 1733
cur table: 1760
epoch: 1000
next table: 2180
cur table: 2159
epoch: 1000
next table: 1746
cur table: 1733
epoch: 1000
next table: 2159
cur table: 2180
epoch: 1000
next table: 1731
cur table: 1746
epoch: 1000
next table: 2175
cur table: 2159
epoch: 1000
next table: 1756
cur table: 1731
epoch: 1000
next table: 1716
cur table: 1756
epoch: 1000
next table: 2180
cur table: 2175
epoch: 1000
next table: 1745
cur table: 1716
epoch: 1000
next table: 2168
cur table: 2180
epoch: 1000
next table: 1742
cur table: 1745
epoch: 1000
next table: 2168
cur table: 2168
epoch: 1000
next table: 1729
cur table: 1742
epoch: 1000
next table: 1742
cur table: 1729
epoch: 1000
next table: 2164
cur table: 2168
epoch: 1000
next table: 1732
cur table: 1742
epoch: 1000
next table: 2175
cur table: 2164
epoch: 1000
next table: 1718
cur table: 1732
epoch: 1000
next table: 2176
cur table: 2175
epoch: 1000
next table: 1741
cur table: 1718
epoch: 1000
next table: 1724
cur table: 1741
epoch: 1000
next table: 2176
cur table: 2176
epoch: 1000
next table: 1739
cur table: 1724
epoch: 1000
next table: 2172
cur table: 2176
epoch: 1000
next table: 1727
cur table: 1739
epoch: 1000
next table: 2169
cur table: 2172
epoch: 1000
next table: 1711
cur table: 1727
epoch: 1000
next table: 1727
cur table: 1711
epoch: 1000
next table: 2159
cur table: 2169
epoch: 1000
next table: 1730
cur table: 1727
epoch: 1000
next table: 2164
cur table: 2159
epoch: 1000
next table: 1737
cur table: 1730
epoch: 1000
next table: 2173
cur table: 2164
epoch: 1000
next table: 1709
cur table: 1737
epoch: 1000
next table: 1714
cur table: 1709
epoch: 1000
next table: 2177
cur table: 2173
epoch: 1000
next table: 1729
cur table: 1714
epoch: 1000
next table: 2172
cur table: 2177
epoch: 1000
next table: 1743
cur table: 1729
epoch: 1000
next table: 2170
cur table: 2172
epoch: 1000
next table: 1752
cur table: 1743
epoch: 1000
next table: 1733
cur table: 1752
epoch: 1000
next table: 2175
cur table: 2170
epoch: 1000
next table: 1749
cur table: 1733
epoch: 1000
next table: 2170
cur table: 2175
epoch: 1000
next table: 1743
cur table: 1749
epoch: 1000
next table: 2167
cur table: 2170
epoch: 1000
next table: 1745
cur table: 1743
epoch: 1000
next table: 1756
cur table: 1745
epoch: 1000
next table: 2172
cur table: 2167
epoch: 1000
next table: 1734
cur table: 1756
epoch: 1000
next table: 2180
cur table: 2172
epoch: 1000
next table: 1738
cur table: 1734
epoch: 1000
next table: 2164
cur table: 2180
epoch: 1000
next table: 1730
cur table: 1738
epoch: 1000
next table: 1732
cur table: 1730
epoch: 1000
next table: 2172
cur table: 2164
epoch: 1000
next table: 1740
cur table: 1732
epoch: 1000
next table: 2171
cur table: 2172
epoch: 1000
next table: 1781
cur table: 1740
epoch: 1000
next table: 2120
cur table: 2171
epoch: 1000
next table: 2023
cur table: 1781
epoch: 1000
next table: 3501
cur table: 2120
epoch: 1000
next table: 2159
cur table: 2023
epoch: 1000
next table: 2425
cur table: 3501
epoch: 1000
next table: 2194
cur table: 2159
epoch: 1000
next table: 2072
cur table: 2425
epoch: 1000
next table: 2168
cur table: 2194
epoch: 1000
next table: 2073
cur table: 2072
epoch: 1000
next table: 2080
cur table: 2073
epoch: 1000
next table: 2113
cur table: 2168
epoch: 1000
next table: 2084
cur table: 2080
epoch: 1000
next table: 2095
cur table: 2113
epoch: 1000
next table: 2079
cur table: 2084
epoch: 1000
next table: 1893
cur table: 2095
epoch: 1000
next table: 2060
cur table: 2079
epoch: 1000
next table: 1941
cur table: 1893
epoch: 1000
next table: 1917
cur table: 1941
epoch: 1000
next table: 2067
cur table: 2060
epoch: 1000
next table: 2503
cur table: 2067
epoch: 1000
next table: 2481
cur table: 2503
epoch: 1000
next table: 2460
cur table: 2481
epoch: 1000
next table: 2456
cur table: 2460
epoch: 1000
next table: 2478
cur table: 2456
epoch: 1000
next table: 2645
cur table: 2478
epoch: 1000
next table: 7326
cur table: 1917
epoch: 1000
next table: 2152
cur table: 2645
epoch: 1000
next table: 1841
cur table: 7326
epoch: 1000
next table: 1799
cur table: 1841
epoch: 1000
next table: 2083
cur table: 2152
epoch: 1000
next table: 2372
cur table: 2083
epoch: 1000
next table: 4069
cur table: 2372
epoch: 1000
next table: 4831
cur table: 4069
epoch: 1000
next table: 3863
cur table: 4831
epoch: 1000
next table: 2471
cur table: 3863
epoch: 1000
next table: 4913
cur table: 2471
epoch: 1000
next table: 4492
cur table: 4913
epoch: 1000
next table: 8170
cur table: 1799
epoch: 1000
next table: 3360
cur table: 4492
epoch: 1000
next table: 3358
cur table: 3360
epoch: 1000
next table: 3023
cur table: 8170
epoch: 1000
next table: 2071
cur table: 3358
epoch: 1000
next table: 1905
cur table: 3023
epoch: 1000
next table: 2042
cur table: 2071
epoch: 1000
next table: 1929
cur table: 1905
epoch: 1000
next table: 1770
cur table: 1929
epoch: 1000
next table: 2129
cur table: 2042
epoch: 1000
next table: 1735
cur table: 1770
epoch: 1000
next table: 2169
cur table: 2129
epoch: 1000
next table: 1730
cur table: 1735
epoch: 1000
next table: 2173
cur table: 2169
epoch: 1000
next table: 1731
cur table: 1730
epoch: 1000
next table: 1704
cur table: 1731
epoch: 1000
next table: 2182
cur table: 2173
epoch: 1000
next table: 1727
cur table: 1704
epoch: 1000
next table: 2169
cur table: 2182
epoch: 1000
next table: 1758
cur table: 1727
epoch: 1000
next table: 2163
cur table: 2169
epoch: 1000
next table: 1733
cur table: 1758
epoch: 1000
next table: 1735
cur table: 1733
epoch: 1000
next table: 2179
cur table: 2163
epoch: 1000
next table: 1726
cur table: 1735
epoch: 1000
next table: 2168
cur table: 2179
epoch: 1000
next table: 1710
cur table: 1726
epoch: 1000
next table: 2161
cur table: 2168
epoch: 1000
next table: 1722
cur table: 1710
epoch: 1000
next table: 1758
cur table: 1722
epoch: 1000
next table: 2175
cur table: 2161
epoch: 1000
next table: 1745
cur table: 1758
epoch: 1000
next table: 2171
cur table: 2175
epoch: 1000
next table: 1742
cur table: 1745
epoch: 1000
next table: 2164
cur table: 2171
epoch: 1000
next table: 1747
cur table: 1742
epoch: 1000
next table: 1730
cur table: 1747
epoch: 1000
next table: 2171
cur table: 2164
epoch: 1000
next table: 1747
cur table: 1730
epoch: 1000
next table: 2174
cur table: 2171
epoch: 1000
next table: 1737
cur table: 1747
epoch: 1000
next table: 2157
cur table: 2174
epoch: 1000
next table: 1743
cur table: 1737
epoch: 1000
next table: 1738
cur table: 1743
epoch: 1000
next table: 2172
cur table: 2157
epoch: 1000
next table: 1745
cur table: 1738
epoch: 1000
next table: 2166
cur table: 2172
epoch: 1000
next table: 1735
cur table: 1745
epoch: 1000
next table: 2167
cur table: 2166
epoch: 1000
next table: 1698
cur table: 1735
epoch: 1000
next table: 1736
cur table: 1698
epoch: 1000
next table: 2170
cur table: 2167
epoch: 1000
next table: 1726
cur table: 1736
epoch: 1000
next table: 2165
cur table: 2170
epoch: 1000
next table: 1735
cur table: 1726
epoch: 1000
next table: 2168
cur table: 2165
epoch: 1000
next table: 1747
cur table: 1735
epoch: 1000
next table: 1717
cur table: 1747
epoch: 1000
next table: 2181
cur table: 2168
epoch: 1000
next table: 1752
cur table: 1717
epoch: 1000
next table: 2168
cur table: 2181
epoch: 1000
next table: 1722
cur table: 1752
epoch: 1000
next table: 1723
cur table: 1722
epoch: 1000
next table: 2178
cur table: 2168
epoch: 1000
next table: 1734
cur table: 1723
epoch: 1000
next table: 2184
cur table: 2178
epoch: 1000
next table: 1726
cur table: 1734
epoch: 1000
next table: 2166
cur table: 2184
epoch: 1000
next table: 1746
cur table: 1726
epoch: 1000
next table: 2169
cur table: 2166
epoch: 1000
next table: 1725
cur table: 1746
epoch: 1000
next table: 1707
cur table: 1725
epoch: 1000
next table: 2169
cur table: 2169
epoch: 1000
next table: 1723
cur table: 1707
epoch: 1000
next table: 2158
cur table: 2169
epoch: 1000
next table: 1738
cur table: 1723
epoch: 1000
next table: 1733
cur table: 1738
epoch: 1000
next table: 2177
cur table: 2158
epoch: 1000
next table: 1713
cur table: 1733
epoch: 1000
next table: 2182
cur table: 2177
epoch: 1000
next table: 1728
cur table: 1713
epoch: 1000
next table: 2171
cur table: 2182
epoch: 1000
next table: 1730
cur table: 1728
epoch: 1000
next table: 1727
cur table: 1730
epoch: 1000
next table: 2166
cur table: 2171
epoch: 1000
next table: 1751
cur table: 1727
epoch: 1000
next table: 2176
cur table: 2166
epoch: 1000
next table: 1718
cur table: 1751
epoch: 1000
next table: 2170
cur table: 2176
epoch: 1000
next table: 1753
cur table: 1718
epoch: 1000
next table: 1732
cur table: 1753
epoch: 1000
next table: 2163
cur table: 2170
epoch: 1000
next table: 1720
cur table: 1732
epoch: 1000
next table: 2173
cur table: 2163
epoch: 1000
next table: 1734
cur table: 1720
epoch: 1000
next table: 2180
cur table: 2173
epoch: 1000
next table: 1722
cur table: 1734
epoch: 1000
next table: 1732
cur table: 1722
epoch: 1000
next table: 2164
cur table: 2180
epoch: 1000
next table: 1722
cur table: 1732
epoch: 1000
next table: 2169
cur table: 2164
epoch: 1000
next table: 1717
cur table: 1722
epoch: 1000
next table: 2179
cur table: 2169
epoch: 1000
next table: 1738
cur table: 1717
epoch: 1000
next table: 1763
cur table: 1738
epoch: 1000
next table: 2136
cur table: 2179
epoch: 1000
next table: 2063
cur table: 1763
epoch: 1000
next table: 2339
cur table: 2136
epoch: 1000
next table: 4101
cur table: 2339
epoch: 1000
next table: 2098
cur table: 2063
epoch: 1000
next table: 2078
cur table: 4101
epoch: 1000
next table: 2149
cur table: 2098
epoch: 1000
next table: 8466
cur table: 2078
epoch: 1000
next table: 2171
cur table: 2149
epoch: 1000
next table: 2071
cur table: 8466
epoch: 1000
next table: 2116
cur table: 2171
epoch: 1000
next table: 2084
cur table: 2071
epoch: 1000
next table: 2074
cur table: 2116
epoch: 1000
next table: 2082
cur table: 2084
epoch: 1000
next table: 2030
cur table: 2074
epoch: 1000
next table: 2078
cur table: 2082
epoch: 1000
next table: 2278
cur table: 2030
epoch: 1000
next table: 4617
cur table: 2078
epoch: 1000
next table: 2024
cur table: 2278
epoch: 1000
next table: 3458
cur table: 4617
epoch: 1000
next table: 1884
cur table: 2024
epoch: 1000
next table: 2104
cur table: 3458
epoch: 1000
next table: 1802
cur table: 1884
epoch: 1000
next table: 2191
cur table: 2104
epoch: 1000
next table: 1762
cur table: 1802
epoch: 1000
next table: 2176
cur table: 2191
epoch: 1000
next table: 1735
cur table: 1762
epoch: 1000
next table: 1757
cur table: 1735
epoch: 1000
next table: 2167
cur table: 2176
epoch: 1000
next table: 1761
cur table: 1757
epoch: 1000
next table: 2174
cur table: 2167
epoch: 1000
next table: 1720
cur table: 1761
epoch: 1000
next table: 2182
cur table: 2174
epoch: 1000
next table: 1733
cur table: 1720
epoch: 1000
next table: 1763
cur table: 1733
epoch: 1000
next table: 2154
cur table: 2182
epoch: 1000
next table: 1740
cur table: 1763
epoch: 1000
next table: 2168
cur table: 2154
epoch: 1000
next table: 1756
cur table: 1740
epoch: 1000
next table: 2172
cur table: 2168
epoch: 1000
next table: 1749
cur table: 1756
epoch: 1000
next table: 1729
cur table: 1749
epoch: 1000
next table: 2171
cur table: 2172
epoch: 1000
next table: 1723
cur table: 1729
epoch: 1000
next table: 2165
cur table: 2171
epoch: 1000
next table: 1785
cur table: 1723
epoch: 1000
next table: 2174
cur table: 2165
epoch: 1000
next table: 1777
cur table: 1785
epoch: 1000
next table: 2171
cur table: 2174
epoch: 1000
next table: 1740
cur table: 1777
epoch: 1000
next table: 1764
cur table: 1740
epoch: 1000
next table: 2166
cur table: 2171
epoch: 1000
next table: 1752
cur table: 1764
epoch: 1000
next table: 2177
cur table: 2166
epoch: 1000
next table: 1748
cur table: 1752
epoch: 1000
next table: 2163
cur table: 2177
epoch: 1000
next table: 1760
cur table: 1748
epoch: 1000
next table: 1765
cur table: 1760
epoch: 1000
next table: 2159
cur table: 2163
epoch: 1000
next table: 1745
cur table: 1765
epoch: 1000
next table: 2183
cur table: 2159
epoch: 1000
next table: 1765
cur table: 1745
epoch: 1000
next table: 2164
cur table: 2183
epoch: 1000
next table: 1762
cur table: 1765
epoch: 1000
next table: 2171
cur table: 2164
epoch: 1000
next table: 1770
cur table: 1762
epoch: 1000
next table: 1735
cur table: 1770
epoch: 1000
next table: 2181
cur table: 2171
epoch: 1000
next table: 1767
cur table: 1735
epoch: 1000
next table: 2164
cur table: 2181
epoch: 1000
next table: 1763
cur table: 1767
epoch: 1000
next table: 2172
cur table: 2164
epoch: 1000
next table: 1782
cur table: 1763
epoch: 1000
next table: 1747
cur table: 1782
epoch: 1000
next table: 2167
cur table: 2172
epoch: 1000
next table: 1753
cur table: 1747
epoch: 1000
next table: 2171
cur table: 2167
epoch: 1000
next table: 1756
cur table: 1753
epoch: 1000
next table: 2180
cur table: 2171
epoch: 1000
next table: 1756
cur table: 1756
epoch: 1000
next table: 1760
cur table: 1756
epoch: 1000
next table: 2172
cur table: 2180
epoch: 1000
next table: 1771
cur table: 1760
epoch: 1000
next table: 2172
cur table: 2172
epoch: 1000
next table: 1769
cur table: 1771
epoch: 1000
next table: 2168
cur table: 2172
epoch: 1000
next table: 1778
cur table: 1769
epoch: 1000
next table: 2167
cur table: 2168
epoch: 1000
next table: 1766
cur table: 1778
epoch: 1000
next table: 1790
cur table: 1766
epoch: 1000
next table: 2161
cur table: 2167
epoch: 1000
next table: 1787
cur table: 1790
epoch: 1000
next table: 2168
cur table: 2161
epoch: 1000
next table: 1732
cur table: 1787
epoch: 1000
next table: 2186
cur table: 2168
epoch: 1000
next table: 1769
cur table: 1732
epoch: 1000
next table: 2162
cur table: 2186
epoch: 1000
next table: 1746
cur table: 1769
epoch: 1000
next table: 1754
cur table: 1746
epoch: 1000
next table: 2167
cur table: 2162
epoch: 1000
next table: 1775
cur table: 1754
epoch: 1000
next table: 2175
cur table: 2167
epoch: 1000
next table: 1760
cur table: 1775
epoch: 1000
next table: 2166
cur table: 2175
epoch: 1000
next table: 1780
cur table: 1760
epoch: 1000
next table: 1769
cur table: 1780
epoch: 1000
next table: 2166
cur table: 2166
epoch: 1000
next table: 1768
cur table: 1769
epoch: 1000
next table: 2177
cur table: 2166
epoch: 1000
next table: 1768
cur table: 1768
epoch: 1000
next table: 2173
cur table: 2177
epoch: 1000
next table: 1752
cur table: 1768
epoch: 1000
next table: 2164
cur table: 2173
epoch: 1000
next table: 1745
cur table: 1752
epoch: 1000
next table: 1763
cur table: 1745
epoch: 1000
next table: 2167
cur table: 2164
epoch: 1000
next table: 1764
cur table: 1763
epoch: 1000
next table: 2174
cur table: 2167
epoch: 1000
next table: 1755
cur table: 1764
epoch: 1000
next table: 2127
cur table: 2174
epoch: 1000
next table: 2004
cur table: 1755
epoch: 1000
next table: 3173
cur table: 2127
epoch: 1000
next table: 2106
cur table: 2004
epoch: 1000
next table: 3494
cur table: 3173
Heartbeat CPU 0 instructions: 10000002 cycles: 3132375 heartbeat IPC: 3.19247 cumulative IPC: 3.19247 (Simulation time: 0 hr 2 min 38 sec) 
epoch: 1000
next table: 2252
cur table: 2106
epoch: 1000
next table: 4968
cur table: 3494
epoch: 1000
next table: 2195
cur table: 2252
epoch: 1000
next table: 5890
cur table: 4968
epoch: 1000
next table: 2075
cur table: 5890
epoch: 1000
next table: 2097
cur table: 2195
epoch: 1000
next table: 2080
cur table: 2075
epoch: 1000
next table: 2128
cur table: 2097
epoch: 1000
next table: 2080
cur table: 2080
epoch: 1000
next table: 2072
cur table: 2128
epoch: 1000
next table: 2067
cur table: 2080
epoch: 1000
next table: 2071
cur table: 2072
epoch: 1000
next table: 2070
cur table: 2067
epoch: 1000
next table: 1861
cur table: 2071
epoch: 1000
next table: 2071
cur table: 2070
epoch: 1000
next table: 1830
cur table: 1861
epoch: 1000
next table: 1833
cur table: 1830
epoch: 1000
next table: 2071
cur table: 2071
epoch: 1000
next table: 1833
cur table: 1833
epoch: 1000
next table: 2079
cur table: 2071
epoch: 1000
next table: 1802
cur table: 1833
epoch: 1000
next table: 2069
cur table: 2079
epoch: 1000
next table: 1808
cur table: 1802
epoch: 1000
next table: 2652
cur table: 2069
epoch: 1000
next table: 2566
cur table: 1808
epoch: 1000
next table: 2222
cur table: 2652
epoch: 1000
next table: 1931
cur table: 2566
epoch: 1000
next table: 2050
cur table: 2222
epoch: 1000
next table: 1928
cur table: 1931
epoch: 1000
next table: 2048
cur table: 2050
epoch: 1000
next table: 1843
cur table: 1928
epoch: 1000
next table: 2139
cur table: 2048
epoch: 1000
next table: 1743
cur table: 1843
epoch: 1000
next table: 2164
cur table: 2139
epoch: 1000
next table: 1769
cur table: 1743
epoch: 1000
next table: 1742
cur table: 1769
epoch: 1000
next table: 2175
cur table: 2164
epoch: 1000
next table: 1736
cur table: 1742
epoch: 1000
next table: 2186
cur table: 2175
epoch: 1000
next table: 1733
cur table: 1736
epoch: 1000
next table: 2154
cur table: 2186
epoch: 1000
next table: 1764
cur table: 1733
epoch: 1000
next table: 2175
cur table: 2154
epoch: 1000
next table: 1739
cur table: 1764
epoch: 1000
next table: 1750
cur table: 1739
epoch: 1000
next table: 2167
cur table: 2175
epoch: 1000
next table: 1735
cur table: 1750
epoch: 1000
next table: 2169
cur table: 2167
epoch: 1000
next table: 1748
cur table: 1735
epoch: 1000
next table: 2168
cur table: 2169
epoch: 1000
next table: 1741
cur table: 1748
epoch: 1000
next table: 1761
cur table: 1741
epoch: 1000
next table: 2171
cur table: 2168
epoch: 1000
next table: 1756
cur table: 1761
epoch: 1000
next table: 2166
cur table: 2171
epoch: 1000
next table: 1739
cur table: 1756
epoch: 1000
next table: 2167
cur table: 2166
epoch: 1000
next table: 1753
cur table: 1739
epoch: 1000
next table: 1760
cur table: 1753
epoch: 1000
next table: 2175
cur table: 2167
epoch: 1000
next table: 1767
cur table: 1760
epoch: 1000
next table: 2158
cur table: 2175
epoch: 1000
next table: 1777
cur table: 1767
epoch: 1000
next table: 2161
cur table: 2158
epoch: 1000
next table: 1781
cur table: 1777
epoch: 1000
next table: 2179
cur table: 2161
epoch: 1000
next table: 1765
cur table: 1781
epoch: 1000
next table: 1758
cur table: 1765
epoch: 1000
next table: 2161
cur table: 2179
epoch: 1000
next table: 1769
cur table: 1758
epoch: 1000
next table: 2169
cur table: 2161
epoch: 1000
next table: 1783
cur table: 1769
epoch: 1000
next table: 2176
cur table: 2169
epoch: 1000
next table: 1752
cur table: 1783
epoch: 1000
next table: 1785
cur table: 1752
epoch: 1000
next table: 2163
cur table: 2176
epoch: 1000
next table: 1801
cur table: 1785
epoch: 1000
next table: 2169
cur table: 2163
epoch: 1000
next table: 1760
cur table: 1801
epoch: 1000
next table: 2174
cur table: 2169
epoch: 1000
next table: 1786
cur table: 1760
epoch: 1000
next table: 2168
cur table: 2174
epoch: 1000
next table: 1773
cur table: 1786
epoch: 1000
next table: 1779
cur table: 1773
epoch: 1000
next table: 2181
cur table: 2168
epoch: 1000
next table: 1796
cur table: 1779
epoch: 1000
next table: 2172
cur table: 2181
epoch: 1000
next table: 1802
cur table: 1796
epoch: 1000
next table: 2164
cur table: 2172
epoch: 1000
next table: 1823
cur table: 1802
epoch: 1000
next table: 2168
cur table: 2164
epoch: 1000
next table: 1787
cur table: 1823
epoch: 1000
next table: 2161
cur table: 2168
epoch: 1000
next table: 1821
cur table: 1787
epoch: 1000
next table: 1812
cur table: 1821
epoch: 1000
next table: 2165
cur table: 2161
epoch: 1000
next table: 1814
cur table: 1812
epoch: 1000
next table: 2165
cur table: 2165
epoch: 1000
next table: 1796
cur table: 1814
epoch: 1000
next table: 2183
cur table: 2165
epoch: 1000
next table: 1811
cur table: 1796
epoch: 1000
next table: 2174
cur table: 2183
epoch: 1000
next table: 1809
cur table: 1811
epoch: 1000
next table: 2163
cur table: 2174
epoch: 1000
next table: 1819
cur table: 1809
epoch: 1000
next table: 1823
cur table: 1819
epoch: 1000
next table: 2173
cur table: 2163
epoch: 1000
next table: 1841
cur table: 1823
epoch: 1000
next table: 2165
cur table: 2173
epoch: 1000
next table: 1852
cur table: 1841
epoch: 1000
next table: 2162
cur table: 2165
epoch: 1000
next table: 1818
cur table: 1852
epoch: 1000
next table: 2174
cur table: 2162
epoch: 1000
next table: 1855
cur table: 1818
epoch: 1000
next table: 2177
cur table: 2174
epoch: 1000
next table: 1849
cur table: 1855
epoch: 1000
next table: 2166
cur table: 2177
epoch: 1000
next table: 1829
cur table: 1849
epoch: 1000
next table: 1853
cur table: 1829
epoch: 1000
next table: 2164
cur table: 2166
epoch: 1000
next table: 1873
cur table: 1853
epoch: 1000
next table: 2173
cur table: 2164
epoch: 1000
next table: 2131
cur table: 1873
epoch: 1000
next table: 2130
cur table: 2173
epoch: 1000
next table: 3532
cur table: 2130
epoch: 1000
next table: 2726
cur table: 2131
epoch: 1000
next table: 2670
cur table: 3532
epoch: 1000
next table: 2069
cur table: 2670
epoch: 1000
next table: 2751
cur table: 2726
epoch: 1000
next table: 2066
cur table: 2069
epoch: 1000
next table: 2079
cur table: 2066
epoch: 1000
next table: 2579
cur table: 2751
epoch: 1000
next table: 2086
cur table: 2079
epoch: 1000
next table: 2802
cur table: 2579
epoch: 1000
next table: 2580
cur table: 2086
epoch: 1000
next table: 6511
cur table: 2580
epoch: 1000
next table: 2925
cur table: 2802
epoch: 1000
next table: 4133
cur table: 6511
epoch: 1000
next table: 2095
cur table: 4133
epoch: 1000
next table: 2876
cur table: 2925
epoch: 1000
next table: 2182
cur table: 2095
epoch: 1000
next table: 2179
cur table: 2182
epoch: 1000
next table: 2917
cur table: 2876
epoch: 1000
next table: 2176
cur table: 2179
epoch: 1000
next table: 2169
cur table: 2176
epoch: 1000
next table: 2182
cur table: 2169
epoch: 1000
next table: 3452
cur table: 2917
epoch: 1000
next table: 2168
cur table: 2182
epoch: 1000
next table: 2164
cur table: 2168
epoch: 1000
next table: 2177
cur table: 2164
epoch: 1000
next table: 2160
cur table: 2177
epoch: 1000
next table: 5369
cur table: 3452
epoch: 1000
next table: 2168
cur table: 2160
epoch: 1000
next table: 2173
cur table: 2168
epoch: 1000
next table: 3008
cur table: 5369
epoch: 1000
next table: 2176
cur table: 2173
epoch: 1000
next table: 1841
cur table: 3008
epoch: 1000
next table: 2166
cur table: 2176
epoch: 1000
next table: 1866
cur table: 1841
epoch: 1000
next table: 2168
cur table: 2166
epoch: 1000
next table: 1850
cur table: 1866
epoch: 1000
next table: 2173
cur table: 2168
epoch: 1000
next table: 1859
cur table: 1850
epoch: 1000
next table: 1872
cur table: 1859
epoch: 1000
next table: 2160
cur table: 2173
epoch: 1000
next table: 1885
cur table: 1872
epoch: 1000
next table: 2170
cur table: 2160
epoch: 1000
next table: 1866
cur table: 1885
epoch: 1000
next table: 2170
cur table: 2170
epoch: 1000
next table: 1854
cur table: 1866
epoch: 1000
next table: 2163
cur table: 2170
epoch: 1000
next table: 1851
cur table: 1854
epoch: 1000
next table: 2167
cur table: 2163
epoch: 1000
next table: 1845
cur table: 1851
epoch: 1000
next table: 2176
cur table: 2167
epoch: 1000
next table: 1887
cur table: 1845
epoch: 1000
next table: 2168
cur table: 2176
epoch: 1000
next table: 1898
cur table: 1887
epoch: 1000
next table: 2171
cur table: 2168
epoch: 1000
next table: 1855
cur table: 1898
epoch: 1000
next table: 1879
cur table: 1855
epoch: 1000
next table: 2175
cur table: 2171
epoch: 1000
next table: 1843
cur table: 1879
epoch: 1000
next table: 2174
cur table: 2175
epoch: 1000
next table: 1844
cur table: 1843
epoch: 1000
next table: 2180
cur table: 2174
epoch: 1000
next table: 1848
cur table: 1844
epoch: 1000
next table: 2173
cur table: 2180
epoch: 1000
next table: 1954
cur table: 1848
epoch: 1000
next table: 2163
cur table: 2173
epoch: 1000
next table: 1931
cur table: 1954
epoch: 1000
next table: 2170
cur table: 2163
epoch: 1000
next table: 1916
cur table: 1931
epoch: 1000
next table: 2164
cur table: 2170
epoch: 1000
next table: 1972
cur table: 1916
epoch: 1000
next table: 2174
cur table: 2164
epoch: 1000
next table: 1963
cur table: 1972
epoch: 1000
next table: 2186
cur table: 2174
epoch: 1000
next table: 1944
cur table: 1963
epoch: 1000
next table: 2159
cur table: 2186
epoch: 1000
next table: 1939
cur table: 1944
epoch: 1000
next table: 2171
cur table: 2159
epoch: 1000
next table: 1852
cur table: 1939
epoch: 1000
next table: 1847
cur table: 1852
epoch: 1000
next table: 2165
cur table: 2171
epoch: 1000
next table: 1874
cur table: 1847
epoch: 1000
next table: 2171
cur table: 2165
epoch: 1000
next table: 1863
cur table: 1874
epoch: 1000
next table: 2164
cur table: 2171
epoch: 1000
next table: 1880
cur table: 1863
epoch: 1000
next table: 2182
cur table: 2164
epoch: 1000
next table: 1884
cur table: 1880
epoch: 1000
next table: 2171
cur table: 2182
epoch: 1000
next table: 1886
cur table: 1884
epoch: 1000
next table: 2173
cur table: 2171
epoch: 1000
next table: 1853
cur table: 1886
epoch: 1000
next table: 2163
cur table: 2173
epoch: 1000
next table: 1916
cur table: 1853
epoch: 1000
next table: 2177
cur table: 2163
epoch: 1000
next table: 1889
cur table: 1916
epoch: 1000
next table: 2165
cur table: 2177
epoch: 1000
next table: 2183
cur table: 1889
epoch: 1000
next table: 2130
cur table: 2165
epoch: 1000
next table: 2596
cur table: 2183
epoch: 1000
next table: 4439
cur table: 2130
epoch: 1000
next table: 2075
cur table: 4439
epoch: 1000
next table: 2069
cur table: 2075
epoch: 1000
next table: 3028
cur table: 2596
epoch: 1000
next table: 3319
cur table: 2069
epoch: 1000
next table: 2153
cur table: 3319
epoch: 1000
next table: 2965
cur table: 3028
epoch: 1000
next table: 2168
cur table: 2153
epoch: 1000
next table: 2924
cur table: 2965
epoch: 1000
next table: 2189
cur table: 2168
epoch: 1000
next table: 2176
cur table: 2189
epoch: 1000
next table: 3028
cur table: 2924
epoch: 1000
next table: 2172
cur table: 2176
epoch: 1000
next table: 2177
cur table: 2172
epoch: 1000
next table: 2180
cur table: 2177
epoch: 1000
next table: 3709
cur table: 3028
epoch: 1000
next table: 2154
cur table: 2180
epoch: 1000
next table: 2180
cur table: 2154
epoch: 1000
next table: 2167
cur table: 2180
epoch: 1000
next table: 2166
cur table: 2167
epoch: 1000
next table: 2177
cur table: 2166
epoch: 1000
next table: 5482
cur table: 3709
epoch: 1000
next table: 2173
cur table: 2177
epoch: 1000
next table: 1892
cur table: 5482
epoch: 1000
next table: 2168
cur table: 2173
epoch: 1000
next table: 1903
cur table: 1892
epoch: 1000
next table: 2167
cur table: 2168
epoch: 1000
next table: 1896
cur table: 1903
epoch: 1000
next table: 1887
cur table: 1896
epoch: 1000
next table: 2183
cur table: 2167
epoch: 1000
next table: 1905
cur table: 1887
epoch: 1000
next table: 2161
cur table: 2183
epoch: 1000
next table: 1905
cur table: 1905
epoch: 1000
next table: 2160
cur table: 2161
epoch: 1000
next table: 1904
cur table: 1905
epoch: 1000
next table: 2183
cur table: 2160
epoch: 1000
next table: 1876
cur table: 1904
epoch: 1000
next table: 2161
cur table: 2183
epoch: 1000
next table: 1840
cur table: 1876
epoch: 1000
next table: 2165
cur table: 2161
epoch: 1000
next table: 1886
cur table: 1840
epoch: 1000
next table: 2176
cur table: 2165
epoch: 1000
next table: 1890
cur table: 1886
epoch: 1000
next table: 2161
cur table: 2176
epoch: 1000
next table: 1928
cur table: 1890
epoch: 1000
next table: 2178
cur table: 2161
epoch: 1000
next table: 1889
cur table: 1928
epoch: 1000
next table: 2167
cur table: 2178
epoch: 1000
next table: 1900
cur table: 1889
epoch: 1000
next table: 1856
cur table: 1900
epoch: 1000
next table: 2167
cur table: 2167
epoch: 1000
next table: 1871
cur table: 1856
epoch: 1000
next table: 2181
cur table: 2167
epoch: 1000
next table: 1871
cur table: 1871
epoch: 1000
next table: 2165
cur table: 2181
epoch: 1000
next table: 1905
cur table: 1871
epoch: 1000
next table: 2163
cur table: 2165
epoch: 1000
next table: 1895
cur table: 1905
epoch: 1000
next table: 2173
cur table: 2163
epoch: 1000
next table: 1900
cur table: 1895
epoch: 1000
next table: 2161
cur table: 2173
epoch: 1000
next table: 2002
cur table: 1900
epoch: 1000
next table: 2162
cur table: 2161
epoch: 1000
next table: 1967
cur table: 2002
epoch: 1000
next table: 2168
cur table: 2162
epoch: 1000
next table: 1960
cur table: 1967
epoch: 1000
next table: 2187
cur table: 2168
epoch: 1000
next table: 1990
cur table: 1960
epoch: 1000
next table: 2176
cur table: 2187
epoch: 1000
next table: 1876
cur table: 1990
epoch: 1000
next table: 2168
cur table: 2176
epoch: 1000
next table: 1920
cur table: 1876
epoch: 1000
next table: 2166
cur table: 2168
epoch: 1000
next table: 1929
cur table: 1920
epoch: 1000
next table: 2171
cur table: 2166
epoch: 1000
next table: 1918
cur table: 1929
epoch: 1000
next table: 2163
cur table: 2171
epoch: 1000
next table: 1925
cur table: 1918
epoch: 1000
next table: 2178
cur table: 2163
epoch: 1000
next table: 1905
cur table: 1925
epoch: 1000
next table: 2175
cur table: 2178
epoch: 1000
next table: 1916
cur table: 1905
epoch: 1000
next table: 2164
cur table: 2175
epoch: 1000
next table: 1907
cur table: 1916
epoch: 1000
next table: 1928
cur table: 1907
epoch: 1000
next table: 2173
cur table: 2164
epoch: 1000
next table: 1961
cur table: 1928
epoch: 1000
next table: 2176
cur table: 2173
epoch: 1000
next table: 2123
cur table: 2176
epoch: 1000
next table: 2512
cur table: 1961
epoch: 1000
next table: 3456
cur table: 2123
epoch: 1000
next table: 3644
cur table: 3456
epoch: 1000
next table: 2934
cur table: 2512
epoch: 1000
next table: 2068
cur table: 3644
epoch: 1000
next table: 2067
cur table: 2068
epoch: 1000
next table: 2994
cur table: 2934
epoch: 1000
next table: 8155
cur table: 2067
epoch: 1000
next table: 2563
cur table: 2994
epoch: 1000
next table: 7453
cur table: 8155
epoch: 1000
next table: 6841
cur table: 7453
epoch: 1000
next table: 2443
cur table: 2563
epoch: 1000
next table: 2078
cur table: 6841
epoch: 1000
next table: 6526
cur table: 2078
epoch: 1000
next table: 2582
cur table: 2443
epoch: 1000
next table: 2922
cur table: 6526
epoch: 1000
next table: 2282
cur table: 2582
epoch: 1000
next table: 3540
cur table: 2922
epoch: 1000
next table: 2420
cur table: 2282
epoch: 1000
next table: 7625
cur table: 3540
epoch: 1000
next table: 2095
cur table: 7625
epoch: 1000
next table: 2762
cur table: 2420
epoch: 1000
next table: 2080
cur table: 2095
epoch: 1000
next table: 2186
cur table: 2080
epoch: 1000
next table: 2839
cur table: 2762
epoch: 1000
next table: 2171
cur table: 2186
epoch: 1000
next table: 2173
cur table: 2171
epoch: 1000
next table: 2984
cur table: 2839
epoch: 1000
next table: 2175
cur table: 2173
epoch: 1000
next table: 2176
cur table: 2175
epoch: 1000
next table: 2152
cur table: 2176
epoch: 1000
next table: 3781
cur table: 2984
epoch: 1000
next table: 2178
cur table: 2152
epoch: 1000
next table: 2166
cur table: 2178
epoch: 1000
next table: 2169
cur table: 2166
epoch: 1000
next table: 2173
cur table: 2169
epoch: 1000
next table: 4936
cur table: 3781
epoch: 1000
next table: 2167
cur table: 2173
epoch: 1000
next table: 1926
cur table: 4936
epoch: 1000
next table: 2163
cur table: 2167
epoch: 1000
next table: 1921
cur table: 1926
epoch: 1000
next table: 1914
cur table: 1921
epoch: 1000
next table: 2176
cur table: 2163
epoch: 1000
next table: 1893
cur table: 1914
epoch: 1000
next table: 2173
cur table: 2176
epoch: 1000
next table: 1932
cur table: 1893
epoch: 1000
next table: 2167
cur table: 2173
epoch: 1000
next table: 1949
cur table: 1932
epoch: 1000
next table: 2164
cur table: 2167
epoch: 1000
next table: 1930
cur table: 1949
epoch: 1000
next table: 2177
cur table: 2164
epoch: 1000
next table: 1895
cur table: 1930
epoch: 1000
next table: 2163
cur table: 2177
epoch: 1000
next table: 1868
cur table: 1895
epoch: 1000
next table: 2172
cur table: 2163
epoch: 1000
next table: 1899
cur table: 1868
epoch: 1000
next table: 2178
cur table: 2172
epoch: 1000
next table: 1914
cur table: 1899
epoch: 1000
next table: 2166
cur table: 2178
epoch: 1000
next table: 1936
cur table: 1914
epoch: 1000
next table: 2172
cur table: 2166
epoch: 1000
next table: 1873
cur table: 1936
epoch: 1000
next table: 2164
cur table: 2172
epoch: 1000
next table: 1932
cur table: 1873
epoch: 1000
next table: 2174
cur table: 2164
epoch: 1000
next table: 1871
cur table: 1932
epoch: 1000
next table: 2177
cur table: 2174
epoch: 1000
next table: 1932
cur table: 1871
epoch: 1000
next table: 1945
cur table: 1932
epoch: 1000
next table: 2174
cur table: 2177
epoch: 1000
next table: 2166
cur table: 2174
epoch: 1000
next table: 1998
cur table: 1945
epoch: 1000
next table: 2169
cur table: 2166
epoch: 1000
next table: 1943
cur table: 1998
epoch: 1000
next table: 2162
cur table: 2169
epoch: 1000
next table: 1991
cur table: 1943
epoch: 1000
next table: 1910
cur table: 1991
epoch: 1000
next table: 2167
cur table: 2162
epoch: 1000
next table: 1918
cur table: 1910
epoch: 1000
next table: 2174
cur table: 2167
epoch: 1000
next table: 1910
cur table: 1918
epoch: 1000
next table: 2177
cur table: 2174
epoch: 1000
next table: 1876
cur table: 1910
epoch: 1000
next table: 2173
cur table: 2177
epoch: 1000
next table: 1866
cur table: 1876
epoch: 1000
next table: 2161
cur table: 2173
epoch: 1000
next table: 1883
cur table: 1866
epoch: 1000
next table: 2170
cur table: 2161
epoch: 1000
next table: 1919
cur table: 1883
epoch: 1000
next table: 2166
cur table: 2170
epoch: 1000
next table: 1925
cur table: 1919
epoch: 1000
next table: 2168
cur table: 2166
epoch: 1000
next table: 1898
cur table: 1925
epoch: 1000
next table: 2177
cur table: 2168
epoch: 1000
next table: 1919
cur table: 1898
epoch: 1000
next table: 2178
cur table: 2177
epoch: 1000
next table: 1908
cur table: 1919
epoch: 1000
next table: 2167
cur table: 2178
epoch: 1000
next table: 1922
cur table: 1908
epoch: 1000
next table: 1895
cur table: 1922
epoch: 1000
next table: 2172
cur table: 2167
epoch: 1000
next table: 1962
cur table: 1895
epoch: 1000
next table: 2172
cur table: 2172
epoch: 1000
next table: 2117
cur table: 2172
epoch: 1000
next table: 2580
cur table: 1962
epoch: 1000
next table: 3905
cur table: 2117
epoch: 1000
next table: 2236
cur table: 3905
epoch: 1000
next table: 3100
cur table: 2580
epoch: 1000
next table: 4013
cur table: 2236
epoch: 1000
next table: 2066
cur table: 4013
epoch: 1000
next table: 3089
cur table: 3100
epoch: 1000
next table: 2081
cur table: 2066
epoch: 1000
next table: 2087
cur table: 2081
epoch: 1000
next table: 2974
cur table: 3089
epoch: 1000
next table: 2080
cur table: 2087
epoch: 1000
next table: 2056
cur table: 2080
epoch: 1000
next table: 2654
cur table: 2974
epoch: 1000
next table: 4518
cur table: 2056
epoch: 1000
next table: 2052
cur table: 4518
epoch: 1000
next table: 2806
cur table: 2654
epoch: 1000
next table: 2123
cur table: 2052
epoch: 1000
next table: 2182
cur table: 2123
epoch: 1000
next table: 2853
cur table: 2806
epoch: 1000
next table: 2167
cur table: 2182
epoch: 1000
next table: 2174
cur table: 2167
epoch: 1000
next table: 3002
cur table: 2853
epoch: 1000
next table: 2177
cur table: 2174
epoch: 1000
next table: 2179
cur table: 2177
epoch: 1000
next table: 3621
cur table: 3002
epoch: 1000
next table: 2153
cur table: 2179
epoch: 1000
next table: 2178
cur table: 2153
epoch: 1000
next table: 2161
cur table: 2178
epoch: 1000
next table: 2174
cur table: 2161
epoch: 1000
next table: 4950
cur table: 3621
epoch: 1000
next table: 2173
cur table: 2174
epoch: 1000
next table: 2099
cur table: 4950
epoch: 1000
next table: 2166
cur table: 2173
epoch: 1000
next table: 1928
cur table: 2099
epoch: 1000
next table: 2166
cur table: 2166
epoch: 1000
next table: 1910
cur table: 1928
epoch: 1000
next table: 2168
cur table: 2166
epoch: 1000
next table: 1918
cur table: 1910
epoch: 1000
next table: 2178
cur table: 2168
epoch: 1000
next table: 1928
cur table: 1918
epoch: 1000
next table: 2165
cur table: 2178
epoch: 1000
next table: 1950
cur table: 1928
epoch: 1000
next table: 2159
cur table: 2165
epoch: 1000
next table: 1959
cur table: 1950
epoch: 1000
next table: 2185
cur table: 2159
epoch: 1000
next table: 1913
cur table: 1959
epoch: 1000
next table: 2164
cur table: 2185
epoch: 1000
next table: 1993
cur table: 1913
epoch: 1000
next table: 2164
cur table: 2164
epoch: 1000
next table: 1971
cur table: 1993
epoch: 1000
next table: 2172
cur table: 2164
epoch: 1000
next table: 2026
cur table: 1971
epoch: 1000
next table: 2167
cur table: 2172
epoch: 1000
next table: 2000
cur table: 2026
epoch: 1000
next table: 2178
cur table: 2167
epoch: 1000
next table: 2011
cur table: 2000
epoch: 1000
next table: 2166
cur table: 2178
epoch: 1000
next table: 1984
cur table: 2011
epoch: 1000
next table: 2174
cur table: 2166
epoch: 1000
next table: 1986
cur table: 1984
epoch: 1000
next table: 2174
cur table: 2174
epoch: 1000
next table: 1958
cur table: 1986
epoch: 1000
next table: 2172
cur table: 2174
epoch: 1000
next table: 2014
cur table: 1958
epoch: 1000
next table: 2165
cur table: 2172
epoch: 1000
next table: 2006
cur table: 2014
epoch: 1000
next table: 2171
cur table: 2165
epoch: 1000
next table: 1997
cur table: 2006
epoch: 1000
next table: 2161
cur table: 2171
epoch: 1000
next table: 2054
cur table: 1997
epoch: 1000
next table: 2165
cur table: 2161
epoch: 1000
next table: 1968
cur table: 2054
epoch: 1000
next table: 2181
cur table: 2165
epoch: 1000
next table: 2022
cur table: 1968
epoch: 1000
next table: 2168
cur table: 2181
epoch: 1000
next table: 1942
cur table: 2022
epoch: 1000
next table: 2176
cur table: 2168
epoch: 1000
next table: 1901
cur table: 1942
epoch: 1000
next table: 2170
cur table: 2176
epoch: 1000
next table: 1909
cur table: 1901
epoch: 1000
next table: 2172
cur table: 2170
epoch: 1000
next table: 1960
cur table: 1909
epoch: 1000
next table: 2166
cur table: 2172
epoch: 1000
next table: 1937
cur table: 1960
epoch: 1000
next table: 2169
cur table: 2166
epoch: 1000
next table: 1925
cur table: 1937
epoch: 1000
next table: 2173
cur table: 2169
epoch: 1000
next table: 1934
cur table: 1925
epoch: 1000
next table: 2180
cur table: 2173
epoch: 1000
next table: 1899
cur table: 1934
epoch: 1000
next table: 2162
cur table: 2180
epoch: 1000
next table: 1956
cur table: 1899
epoch: 1000
next table: 2169
cur table: 2162
epoch: 1000
next table: 1931
cur table: 1956
epoch: 1000
next table: 2168
cur table: 2169
epoch: 1000
next table: 2228
cur table: 1931
epoch: 1000
next table: 2120
cur table: 2168
epoch: 1000
next table: 4148
cur table: 2120
epoch: 1000
next table: 2713
cur table: 2228
epoch: 1000
next table: 2178
cur table: 4148
epoch: 1000
next table: 2065
cur table: 2178
Heartbeat CPU 0 instructions: 20000000 cycles: 6260589 heartbeat IPC: 3.19671 cumulative IPC: 3.19459 (Simulation time: 0 hr 5 min 15 sec) 
epoch: 1000
next table: 3215
cur table: 2713
epoch: 1000
next table: 4834
cur table: 2065
epoch: 1000
next table: 2337
cur table: 4834
epoch: 1000
next table: 2779
cur table: 3215
epoch: 1000
next table: 2162
cur table: 2337
epoch: 1000
next table: 2191
cur table: 2162
epoch: 1000
next table: 2866
cur table: 2779
epoch: 1000
next table: 2179
cur table: 2191
epoch: 1000
next table: 2169
cur table: 2179
epoch: 1000
next table: 3047
cur table: 2866
epoch: 1000
next table: 2181
cur table: 2169
epoch: 1000
next table: 2186
cur table: 2181
epoch: 1000
next table: 3444
cur table: 3047
epoch: 1000
next table: 2153
cur table: 2186
epoch: 1000
next table: 2172
cur table: 2153
epoch: 1000
next table: 2170
cur table: 2172
epoch: 1000
next table: 2172
cur table: 2170
epoch: 1000
next table: 4597
cur table: 3444
epoch: 1000
next table: 2162
cur table: 2172
epoch: 1000
next table: 2175
cur table: 2162
epoch: 1000
next table: 2585
cur table: 4597
epoch: 1000
next table: 2170
cur table: 2175
epoch: 1000
next table: 1956
cur table: 2585
epoch: 1000
next table: 2167
cur table: 2170
epoch: 1000
next table: 1954
cur table: 1956
epoch: 1000
next table: 2176
cur table: 2167
epoch: 1000
next table: 1952
cur table: 1954
epoch: 1000
next table: 1940
cur table: 1952
epoch: 1000
next table: 2164
cur table: 2176
epoch: 1000
next table: 1971
cur table: 1940
epoch: 1000
next table: 2162
cur table: 2164
epoch: 1000
next table: 1954
cur table: 1971
epoch: 1000
next table: 2183
cur table: 2162
epoch: 1000
next table: 1916
cur table: 1954
epoch: 1000
next table: 2162
cur table: 2183
epoch: 1000
next table: 1917
cur table: 1916
epoch: 1000
next table: 2169
cur table: 2162
epoch: 1000
next table: 1942
cur table: 1917
epoch: 1000
next table: 2175
cur table: 2169
epoch: 1000
next table: 1965
cur table: 1942
epoch: 1000
next table: 2165
cur table: 2175
epoch: 1000
next table: 1952
cur table: 1965
epoch: 1000
next table: 2171
cur table: 2165
epoch: 1000
next table: 1918
cur table: 1952
epoch: 1000
next table: 2181
cur table: 2171
epoch: 1000
next table: 1939
cur table: 1918
epoch: 1000
next table: 2167
cur table: 2181
epoch: 1000
next table: 1910
cur table: 1939
epoch: 1000
next table: 2182
cur table: 2167
epoch: 1000
next table: 1914
cur table: 1910
epoch: 1000
next table: 2171
cur table: 2182
epoch: 1000
next table: 1871
cur table: 1914
epoch: 1000
next table: 2169
cur table: 2171
epoch: 1000
next table: 1940
cur table: 1871
epoch: 1000
next table: 2168
cur table: 2169
epoch: 1000
next table: 1903
cur table: 1940
epoch: 1000
next table: 2159
cur table: 2168
epoch: 1000
next table: 1925
cur table: 1903
epoch: 1000
next table: 2162
cur table: 2159
epoch: 1000
next table: 1931
cur table: 1925
epoch: 1000
next table: 2169
cur table: 2162
epoch: 1000
next table: 1936
cur table: 1931
epoch: 1000
next table: 2186
cur table: 2169
epoch: 1000
next table: 1928
cur table: 1936
epoch: 1000
next table: 1898
cur table: 1928
epoch: 1000
next table: 2172
cur table: 2186
epoch: 1000
next table: 1913
cur table: 1898
epoch: 1000
next table: 2163
cur table: 2172
epoch: 1000
next table: 1922
cur table: 1913
epoch: 1000
next table: 2170
cur table: 2163
epoch: 1000
next table: 1963
cur table: 1922
epoch: 1000
next table: 2167
cur table: 2170
epoch: 1000
next table: 1939
cur table: 1963
epoch: 1000
next table: 2165
cur table: 2167
epoch: 1000
next table: 1932
cur table: 1939
epoch: 1000
next table: 2176
cur table: 2165
epoch: 1000
next table: 1978
cur table: 1932
epoch: 1000
next table: 2177
cur table: 2176
epoch: 1000
next table: 1912
cur table: 1978
epoch: 1000
next table: 2167
cur table: 2177
epoch: 1000
next table: 1977
cur table: 1912
epoch: 1000
next table: 2169
cur table: 2167
epoch: 1000
next table: 1952
cur table: 1977
epoch: 1000
next table: 2172
cur table: 2169
epoch: 1000
next table: 2224
cur table: 1952
epoch: 1000
next table: 2126
cur table: 2172
epoch: 1000
next table: 3326
cur table: 2126
epoch: 1000
next table: 2924
cur table: 2224
epoch: 1000
next table: 2509
cur table: 3326
epoch: 1000
next table: 2068
cur table: 2509
epoch: 1000
next table: 3142
cur table: 2924
epoch: 1000
next table: 2070
cur table: 2068
epoch: 1000
next table: 5855
cur table: 2070
epoch: 1000
next table: 2880
cur table: 3142
epoch: 1000
next table: 3927
cur table: 5855
epoch: 1000
next table: 2152
cur table: 3927
epoch: 1000
next table: 2952
cur table: 2880
epoch: 1000
next table: 2179
cur table: 2152
epoch: 1000
next table: 2184
cur table: 2179
epoch: 1000
next table: 2839
cur table: 2952
epoch: 1000
next table: 2174
cur table: 2184
epoch: 1000
next table: 2172
cur table: 2174
epoch: 1000
next table: 3228
cur table: 2839
epoch: 1000
next table: 2184
cur table: 2172
epoch: 1000
next table: 2168
cur table: 2184
epoch: 1000
next table: 2169
cur table: 2168
epoch: 1000
next table: 3890
cur table: 3228
epoch: 1000
next table: 2176
cur table: 2169
epoch: 1000
next table: 2169
cur table: 2176
epoch: 1000
next table: 2164
cur table: 2169
epoch: 1000
next table: 4094
cur table: 3890
epoch: 1000
next table: 2173
cur table: 2164
epoch: 1000
next table: 1984
cur table: 4094
epoch: 1000
next table: 2174
cur table: 2173
epoch: 1000
next table: 1958
cur table: 1984
epoch: 1000
next table: 2173
cur table: 2174
epoch: 1000
next table: 1954
cur table: 1958
epoch: 1000
next table: 2171
cur table: 2173
epoch: 1000
next table: 1920
cur table: 1954
epoch: 1000
next table: 2173
cur table: 2171
epoch: 1000
next table: 1979
cur table: 1920
epoch: 1000
next table: 2160
cur table: 2173
epoch: 1000
next table: 1993
cur table: 1979
epoch: 1000
next table: 2171
cur table: 2160
epoch: 1000
next table: 1948
cur table: 1993
epoch: 1000
next table: 2173
cur table: 2171
epoch: 1000
next table: 1920
cur table: 1948
epoch: 1000
next table: 2170
cur table: 2173
epoch: 1000
next table: 1934
cur table: 1920
epoch: 1000
next table: 2169
cur table: 2170
epoch: 1000
next table: 1931
cur table: 1934
epoch: 1000
next table: 2165
cur table: 2169
epoch: 1000
next table: 1959
cur table: 1931
epoch: 1000
next table: 2164
cur table: 2165
epoch: 1000
next table: 1948
cur table: 1959
epoch: 1000
next table: 2174
cur table: 2164
epoch: 1000
next table: 1976
cur table: 1948
epoch: 1000
next table: 2168
cur table: 2174
epoch: 1000
next table: 1904
cur table: 1976
epoch: 1000
next table: 2178
cur table: 2168
epoch: 1000
next table: 1919
cur table: 1904
epoch: 1000
next table: 2186
cur table: 2178
epoch: 1000
next table: 1924
cur table: 1919
epoch: 1000
next table: 2163
cur table: 2186
epoch: 1000
next table: 1964
cur table: 1924
epoch: 1000
next table: 2165
cur table: 2163
epoch: 1000
next table: 1912
cur table: 1964
epoch: 1000
next table: 2167
cur table: 2165
epoch: 1000
next table: 1910
cur table: 1912
epoch: 1000
next table: 2154
cur table: 2167
epoch: 1000
next table: 1967
cur table: 1910
epoch: 1000
next table: 2182
cur table: 2154
epoch: 1000
next table: 1932
cur table: 1967
epoch: 1000
next table: 2183
cur table: 2182
epoch: 1000
next table: 1942
cur table: 1932
epoch: 1000
next table: 2162
cur table: 2183
epoch: 1000
next table: 1926
cur table: 1942
epoch: 1000
next table: 2169
cur table: 2162
epoch: 1000
next table: 1917
cur table: 1926
epoch: 1000
next table: 2178
cur table: 2169
epoch: 1000
next table: 1959
cur table: 1917
epoch: 1000
next table: 2173
cur table: 2178
epoch: 1000
next table: 1994
cur table: 1959
epoch: 1000
next table: 2161
cur table: 2173
epoch: 1000
next table: 1958
cur table: 1994
epoch: 1000
next table: 2173
cur table: 2161
epoch: 1000
next table: 1967
cur table: 1958
epoch: 1000
next table: 2172
cur table: 2173
epoch: 1000
next table: 1965
cur table: 1967
epoch: 1000
next table: 1932
cur table: 1965
epoch: 1000
next table: 2172
cur table: 2172
epoch: 1000
next table: 1975
cur table: 1932
epoch: 1000
next table: 2163
cur table: 2172
epoch: 1000
next table: 1967
cur table: 1975
epoch: 1000
next table: 2180
cur table: 2163
epoch: 1000
next table: 2151
cur table: 2180
epoch: 1000
next table: 2275
cur table: 1967
epoch: 1000
next table: 2138
cur table: 2151
epoch: 1000
next table: 2420
cur table: 2275
epoch: 1000
next table: 4242
cur table: 2138
epoch: 1000
next table: 3097
cur table: 4242
epoch: 1000
next table: 2167
cur table: 2420
epoch: 1000
next table: 3164
cur table: 3097
epoch: 1000
next table: 2064
cur table: 3164
epoch: 1000
next table: 3332
cur table: 2167
epoch: 1000
next table: 2074
cur table: 2064
epoch: 1000
next table: 2081
cur table: 2074
epoch: 1000
next table: 2668
cur table: 3332
epoch: 1000
next table: 3380
cur table: 2081
epoch: 1000
next table: 2113
cur table: 3380
epoch: 1000
next table: 2883
cur table: 2668
epoch: 1000
next table: 2177
cur table: 2113
epoch: 1000
next table: 2776
cur table: 2883
epoch: 1000
next table: 2185
cur table: 2177
epoch: 1000
next table: 2170
cur table: 2185
epoch: 1000
next table: 2858
cur table: 2776
epoch: 1000
next table: 2165
cur table: 2170
epoch: 1000
next table: 2182
cur table: 2165
epoch: 1000
next table: 3285
cur table: 2858
epoch: 1000
next table: 2173
cur table: 2182
epoch: 1000
next table: 2160
cur table: 2173
epoch: 1000
next table: 2178
cur table: 2160
epoch: 1000
next table: 2157
cur table: 2178
epoch: 1000
next table: 4055
cur table: 3285
epoch: 1000
next table: 2170
cur table: 2157
epoch: 1000
next table: 2177
cur table: 2170
epoch: 1000
next table: 3303
cur table: 4055
epoch: 1000
next table: 2168
cur table: 2177
epoch: 1000
next table: 1976
cur table: 3303
epoch: 1000
next table: 2166
cur table: 2168
epoch: 1000
next table: 1975
cur table: 1976
epoch: 1000
next table: 2176
cur table: 2166
epoch: 1000
next table: 1957
cur table: 1975
epoch: 1000
next table: 2176
cur table: 2176
epoch: 1000
next table: 1934
cur table: 1957
epoch: 1000
next table: 2160
cur table: 2176
epoch: 1000
next table: 1971
cur table: 1934
epoch: 1000
next table: 2166
cur table: 2160
epoch: 1000
next table: 1994
cur table: 1971
epoch: 1000
next table: 2177
cur table: 2166
epoch: 1000
next table: 1925
cur table: 1994
epoch: 1000
next table: 2165
cur table: 2177
epoch: 1000
next table: 1905
cur table: 1925
epoch: 1000
next table: 2166
cur table: 2165
epoch: 1000
next table: 1948
cur table: 1905
epoch: 1000
next table: 2172
cur table: 2166
epoch: 1000
next table: 1962
cur table: 1948
epoch: 1000
next table: 2167
cur table: 2172
epoch: 1000
next table: 1988
cur table: 1962
epoch: 1000
next table: 2175
cur table: 2167
epoch: 1000
next table: 1905
cur table: 1988
epoch: 1000
next table: 2164
cur table: 2175
epoch: 1000
next table: 1979
cur table: 1905
epoch: 1000
next table: 2174
cur table: 2164
epoch: 1000
next table: 1927
cur table: 1979
epoch: 1000
next table: 2184
cur table: 2174
epoch: 1000
next table: 1937
cur table: 1927
epoch: 1000
next table: 1923
cur table: 1937
epoch: 1000
next table: 2172
cur table: 2184
epoch: 1000
next table: 1947
cur table: 1923
epoch: 1000
next table: 2166
cur table: 2172
epoch: 1000
next table: 1915
cur table: 1947
epoch: 1000
next table: 2176
cur table: 2166
epoch: 1000
next table: 1937
cur table: 1915
epoch: 1000
next table: 2157
cur table: 2176
epoch: 1000
next table: 1936
cur table: 1937
epoch: 1000
next table: 2167
cur table: 2157
epoch: 1000
next table: 1958
cur table: 1936
epoch: 1000
next table: 2183
cur table: 2167
epoch: 1000
next table: 1972
cur table: 1958
epoch: 1000
next table: 2169
cur table: 2183
epoch: 1000
next table: 1891
cur table: 1972
epoch: 1000
next table: 2168
cur table: 2169
epoch: 1000
next table: 1924
cur table: 1891
epoch: 1000
next table: 2168
cur table: 2168
epoch: 1000
next table: 1946
cur table: 1924
epoch: 1000
next table: 2171
cur table: 2168
epoch: 1000
next table: 2008
cur table: 1946
epoch: 1000
next table: 2171
cur table: 2171
epoch: 1000
next table: 1972
cur table: 2008
epoch: 1000
next table: 2169
cur table: 2171
epoch: 1000
next table: 1941
cur table: 1972
epoch: 1000
next table: 2167
cur table: 2169
epoch: 1000
next table: 1962
cur table: 1941
epoch: 1000
next table: 2175
cur table: 2167
epoch: 1000
next table: 1927
cur table: 1962
epoch: 1000
next table: 2159
cur table: 2175
epoch: 1000
next table: 1963
cur table: 1927
epoch: 1000
next table: 2179
cur table: 2159
epoch: 1000
next table: 1982
cur table: 1963
epoch: 1000
next table: 2171
cur table: 2179
epoch: 1000
next table: 2477
cur table: 1982
epoch: 1000
next table: 2103
cur table: 2171
epoch: 1000
next table: 3827
cur table: 2103
epoch: 1000
next table: 2232
cur table: 3827
epoch: 1000
next table: 3156
cur table: 2477
epoch: 1000
next table: 3998
cur table: 2232
epoch: 1000
next table: 10261
cur table: 3998
epoch: 1000
next table: 2892
cur table: 3156
epoch: 1000
next table: 3214
cur table: 10261
epoch: 1000
next table: 2675
cur table: 2892
epoch: 1000
next table: 2084
cur table: 3214
epoch: 1000
next table: 2136
cur table: 2675
epoch: 1000
next table: 2077
cur table: 2084
epoch: 1000
next table: 5885
cur table: 2077
epoch: 1000
next table: 2568
cur table: 2136
epoch: 1000
next table: 2099
cur table: 5885
epoch: 1000
next table: 2125
cur table: 2099
epoch: 1000
next table: 2762
cur table: 2568
epoch: 1000
next table: 2186
cur table: 2125
epoch: 1000
next table: 2714
cur table: 2762
epoch: 1000
next table: 2172
cur table: 2186
epoch: 1000
next table: 2168
cur table: 2172
epoch: 1000
next table: 2179
cur table: 2168
epoch: 1000
next table: 3132
cur table: 2714
epoch: 1000
next table: 2180
cur table: 2179
epoch: 1000
next table: 2160
cur table: 2180
epoch: 1000
next table: 3513
cur table: 3132
epoch: 1000
next table: 2177
cur table: 2160
epoch: 1000
next table: 2163
cur table: 2177
epoch: 1000
next table: 2163
cur table: 2163
epoch: 1000
next table: 2170
cur table: 2163
epoch: 1000
next table: 4370
cur table: 3513
epoch: 1000
next table: 2166
cur table: 2170
epoch: 1000
next table: 2010
cur table: 4370
epoch: 1000
next table: 2165
cur table: 2166
epoch: 1000
next table: 1967
cur table: 2010
epoch: 1000
next table: 2172
cur table: 2165
epoch: 1000
next table: 1960
cur table: 1967
epoch: 1000
next table: 2172
cur table: 2172
epoch: 1000
next table: 1955
cur table: 1960
epoch: 1000
next table: 2170
cur table: 2172
epoch: 1000
next table: 1997
cur table: 1955
epoch: 1000
next table: 2163
cur table: 2170
epoch: 1000
next table: 1993
cur table: 1997
epoch: 1000
next table: 2177
cur table: 2163
epoch: 1000
next table: 1967
cur table: 1993
epoch: 1000
next table: 2161
cur table: 2177
epoch: 1000
next table: 1995
cur table: 1967
epoch: 1000
next table: 2168
cur table: 2161
epoch: 1000
next table: 2025
cur table: 1995
epoch: 1000
next table: 2176
cur table: 2168
epoch: 1000
next table: 2090
cur table: 2025
epoch: 1000
next table: 2161
cur table: 2176
epoch: 1000
next table: 2072
cur table: 2090
epoch: 1000
next table: 2168
cur table: 2161
epoch: 1000
next table: 2032
cur table: 2072
epoch: 1000
next table: 2170
cur table: 2168
epoch: 1000
next table: 2100
cur table: 2032
epoch: 1000
next table: 2173
cur table: 2170
epoch: 1000
next table: 2020
cur table: 2100
epoch: 1000
next table: 2181
cur table: 2173
epoch: 1000
next table: 2028
cur table: 2020
epoch: 1000
next table: 2168
cur table: 2181
epoch: 1000
next table: 2045
cur table: 2028
epoch: 1000
next table: 2165
cur table: 2168
epoch: 1000
next table: 2027
cur table: 2045
epoch: 1000
next table: 2172
cur table: 2165
epoch: 1000
next table: 1997
cur table: 2027
epoch: 1000
next table: 2160
cur table: 2172
epoch: 1000
next table: 2066
cur table: 1997
epoch: 1000
next table: 2171
cur table: 2160
epoch: 1000
next table: 2041
cur table: 2066
epoch: 1000
next table: 2176
cur table: 2171
epoch: 1000
next table: 2178
cur table: 2176
epoch: 1000
next table: 2046
cur table: 2041
epoch: 1000
next table: 2176
cur table: 2178
epoch: 1000
next table: 1980
cur table: 2046
epoch: 1000
next table: 2167
cur table: 2176
epoch: 1000
next table: 2022
cur table: 1980
epoch: 1000
next table: 2164
cur table: 2167
epoch: 1000
next table: 1970
cur table: 2022
epoch: 1000
next table: 2169
cur table: 2164
epoch: 1000
next table: 1986
cur table: 1970
epoch: 1000
next table: 2169
cur table: 2169
epoch: 1000
next table: 1982
cur table: 1986
epoch: 1000
next table: 2176
cur table: 2169
epoch: 1000
next table: 1966
cur table: 1982
epoch: 1000
next table: 2177
cur table: 2176
epoch: 1000
next table: 1971
cur table: 1966
epoch: 1000
next table: 2165
cur table: 2177
epoch: 1000
next table: 1965
cur table: 1971
epoch: 1000
next table: 2175
cur table: 2165
epoch: 1000
next table: 1984
cur table: 1965
epoch: 1000
next table: 2172
cur table: 2175
epoch: 1000
next table: 2013
cur table: 1984
epoch: 1000
next table: 2122
cur table: 2172
epoch: 1000
next table: 2727
cur table: 2013
epoch: 1000
next table: 3583
cur table: 2122
epoch: 1000
next table: 2583
cur table: 3583
epoch: 1000
next table: 2071
cur table: 2583
epoch: 1000
next table: 3306
cur table: 2727
epoch: 1000
next table: 2064
cur table: 2071
epoch: 1000
next table: 2079
cur table: 2064
epoch: 1000
next table: 2985
cur table: 3306
epoch: 1000
next table: 4115
cur table: 2079
epoch: 1000
next table: 6121
cur table: 4115
epoch: 1000
next table: 3103
cur table: 2985
epoch: 1000
next table: 6761
cur table: 6121
epoch: 1000
next table: 8188
cur table: 6761
epoch: 1000
next table: 3022
cur table: 3103
epoch: 1000
next table: 2122
cur table: 8188
epoch: 1000
next table: 2182
cur table: 2122
epoch: 1000
next table: 2739
cur table: 3022
epoch: 1000
next table: 2178
cur table: 2182
epoch: 1000
next table: 2679
cur table: 2739
epoch: 1000
next table: 2167
cur table: 2178
epoch: 1000
next table: 2174
cur table: 2167
epoch: 1000
next table: 3037
cur table: 2679
epoch: 1000
next table: 2183
cur table: 2174
epoch: 1000
next table: 2168
cur table: 2183
epoch: 1000
next table: 2165
cur table: 2168
epoch: 1000
next table: 3343
cur table: 3037
epoch: 1000
next table: 2168
cur table: 2165
epoch: 1000
next table: 2166
cur table: 2168
epoch: 1000
next table: 2163
cur table: 2166
epoch: 1000
next table: 4417
cur table: 3343
epoch: 1000
next table: 2175
cur table: 2163
epoch: 1000
next table: 2067
cur table: 4417
epoch: 1000
next table: 2170
cur table: 2175
epoch: 1000
next table: 2067
cur table: 2067
epoch: 1000
next table: 2169
cur table: 2170
epoch: 1000
next table: 2059
cur table: 2067
epoch: 1000
next table: 2175
cur table: 2169
epoch: 1000
next table: 2174
cur table: 2175
epoch: 1000
next table: 2072
cur table: 2059
epoch: 1000
next table: 2155
cur table: 2174
epoch: 1000
next table: 2051
cur table: 2072
epoch: 1000
next table: 2169
cur table: 2155
epoch: 1000
next table: 2088
cur table: 2051
epoch: 1000
next table: 2175
cur table: 2169
epoch: 1000
next table: 2015
cur table: 2088
epoch: 1000
next table: 2170
cur table: 2175
epoch: 1000
next table: 2045
cur table: 2015
epoch: 1000
next table: 2164
cur table: 2170
epoch: 1000
next table: 2034
cur table: 2045
epoch: 1000
next table: 2176
cur table: 2164
epoch: 1000
next table: 2069
cur table: 2034
epoch: 1000
next table: 2164
cur table: 2176
epoch: 1000
next table: 2052
cur table: 2069
epoch: 1000
next table: 2177
cur table: 2164
epoch: 1000
next table: 2060
cur table: 2052
epoch: 1000
next table: 2168
cur table: 2177
epoch: 1000
next table: 2044
cur table: 2060
epoch: 1000
next table: 2176
cur table: 2168
epoch: 1000
next table: 2034
cur table: 2044
epoch: 1000
next table: 2183
cur table: 2176
epoch: 1000
next table: 2046
cur table: 2034
epoch: 1000
next table: 2163
cur table: 2183
epoch: 1000
next table: 2028
cur table: 2046
epoch: 1000
next table: 2172
cur table: 2163
epoch: 1000
next table: 2010
cur table: 2028
epoch: 1000
next table: 2167
cur table: 2172
epoch: 1000
next table: 2158
cur table: 2167
epoch: 1000
next table: 2051
cur table: 2010
epoch: 1000
next table: 2179
cur table: 2158
epoch: 1000
next table: 2021
cur table: 2051
epoch: 1000
next table: 2182
cur table: 2179
epoch: 1000
next table: 2042
cur table: 2021
epoch: 1000
next table: 2160
cur table: 2182
epoch: 1000
next table: 2063
cur table: 2042
epoch: 1000
next table: 2172
cur table: 2160
epoch: 1000
next table: 1977
cur table: 2063
epoch: 1000
next table: 2171
cur table: 2172
epoch: 1000
next table: 2045
cur table: 1977
epoch: 1000
next table: 2172
cur table: 2171
epoch: 1000
next table: 2106
cur table: 2045
epoch: 1000
next table: 2169
cur table: 2172
epoch: 1000
next table: 2049
cur table: 2106
epoch: 1000
next table: 2176
cur table: 2169
epoch: 1000
next table: 2033
cur table: 2049
epoch: 1000
next table: 2170
cur table: 2176
epoch: 1000
next table: 2078
cur table: 2033
epoch: 1000
next table: 2175
cur table: 2170
epoch: 1000
next table: 2049
cur table: 2078
epoch: 1000
next table: 2172
cur table: 2175
epoch: 1000
next table: 2071
cur table: 2049
epoch: 1000
next table: 2178
cur table: 2172
epoch: 1000
next table: 2137
cur table: 2071
epoch: 1000
next table: 2158
cur table: 2178
epoch: 1000
next table: 2143
cur table: 2158
epoch: 1000
next table: 2962
cur table: 2137
epoch: 1000
next table: 3674
cur table: 2143
epoch: 1000
next table: 4097
cur table: 3674
epoch: 1000
next table: 9566
cur table: 4097
epoch: 1000
next table: 3229
cur table: 2962
epoch: 1000
next table: 2074
cur table: 9566
epoch: 1000
next table: 2084
cur table: 2074
epoch: 1000
next table: 3065
cur table: 3229
epoch: 1000
next table: 2078
cur table: 2084
epoch: 1000
next table: 2364
cur table: 3065
Heartbeat CPU 0 instructions: 30000001 cycles: 9405834 heartbeat IPC: 3.1794 cumulative IPC: 3.18951 (Simulation time: 0 hr 7 min 54 sec) 
epoch: 1000
next table: 4613
cur table: 2078
epoch: 1000
next table: 2285
cur table: 2364
epoch: 1000
next table: 6417
cur table: 4613
epoch: 1000
next table: 2074
cur table: 6417
epoch: 1000
next table: 2853
cur table: 2285
epoch: 1000
next table: 2163
cur table: 2074
epoch: 1000
next table: 2182
cur table: 2163
epoch: 1000
next table: 2646
cur table: 2853
epoch: 1000
next table: 2173
cur table: 2182
epoch: 1000
next table: 2165
cur table: 2173
epoch: 1000
next table: 2941
cur table: 2646
epoch: 1000
next table: 2179
cur table: 2165
epoch: 1000
next table: 2174
cur table: 2179
epoch: 1000
next table: 3241
cur table: 2941
epoch: 1000
next table: 2163
cur table: 2174
epoch: 1000
next table: 2179
cur table: 2163
epoch: 1000
next table: 2156
cur table: 2179
epoch: 1000
next table: 3864
cur table: 3241
epoch: 1000
next table: 2170
cur table: 2156
epoch: 1000
next table: 2176
cur table: 2170
epoch: 1000
next table: 2797
cur table: 3864
epoch: 1000
next table: 2170
cur table: 2176
epoch: 1000
next table: 1999
cur table: 2797
epoch: 1000
next table: 2166
cur table: 2170
epoch: 1000
next table: 1975
cur table: 1999
epoch: 1000
next table: 2175
cur table: 2166
epoch: 1000
next table: 1995
cur table: 1975
epoch: 1000
next table: 2177
cur table: 2175
epoch: 1000
next table: 1965
cur table: 1995
epoch: 1000
next table: 2156
cur table: 2177
epoch: 1000
next table: 1969
cur table: 1965
epoch: 1000
next table: 2160
cur table: 2156
epoch: 1000
next table: 1990
cur table: 1969
epoch: 1000
next table: 2179
cur table: 2160
epoch: 1000
next table: 1966
cur table: 1990
epoch: 1000
next table: 2166
cur table: 2179
epoch: 1000
next table: 1976
cur table: 1966
epoch: 1000
next table: 2166
cur table: 2166
epoch: 1000
next table: 2030
cur table: 1976
epoch: 1000
next table: 2168
cur table: 2166
epoch: 1000
next table: 2068
cur table: 2030
epoch: 1000
next table: 2166
cur table: 2168
epoch: 1000
next table: 2094
cur table: 2068
epoch: 1000
next table: 2172
cur table: 2166
epoch: 1000
next table: 2051
cur table: 2094
epoch: 1000
next table: 2167
cur table: 2172
epoch: 1000
next table: 2050
cur table: 2051
epoch: 1000
next table: 2174
cur table: 2167
epoch: 1000
next table: 2179
cur table: 2174
epoch: 1000
next table: 2051
cur table: 2050
epoch: 1000
next table: 2177
cur table: 2179
epoch: 1000
next table: 2062
cur table: 2051
epoch: 1000
next table: 2164
cur table: 2177
epoch: 1000
next table: 2068
cur table: 2062
epoch: 1000
next table: 2170
cur table: 2164
epoch: 1000
next table: 2046
cur table: 2068
epoch: 1000
next table: 2157
cur table: 2170
epoch: 1000
next table: 2088
cur table: 2046
epoch: 1000
next table: 2168
cur table: 2157
epoch: 1000
next table: 2048
cur table: 2088
epoch: 1000
next table: 2181
cur table: 2168
epoch: 1000
next table: 2066
cur table: 2048
epoch: 1000
next table: 2165
cur table: 2181
epoch: 1000
next table: 2026
cur table: 2066
epoch: 1000
next table: 2171
cur table: 2165
epoch: 1000
next table: 1971
cur table: 2026
epoch: 1000
next table: 2167
cur table: 2171
epoch: 1000
next table: 1973
cur table: 1971
epoch: 1000
next table: 2171
cur table: 2167
epoch: 1000
next table: 2002
cur table: 1973
epoch: 1000
next table: 2171
cur table: 2171
epoch: 1000
next table: 2005
cur table: 2002
epoch: 1000
next table: 2172
cur table: 2171
epoch: 1000
next table: 1977
cur table: 2005
epoch: 1000
next table: 2172
cur table: 2172
epoch: 1000
next table: 1981
cur table: 1977
epoch: 1000
next table: 2176
cur table: 2172
epoch: 1000
next table: 1945
cur table: 1981
epoch: 1000
next table: 2165
cur table: 2176
epoch: 1000
next table: 1998
cur table: 1945
epoch: 1000
next table: 2176
cur table: 2165
epoch: 1000
next table: 2020
cur table: 1998
epoch: 1000
next table: 2171
cur table: 2176
epoch: 1000
next table: 2110
cur table: 2171
epoch: 1000
next table: 2530
cur table: 2020
epoch: 1000
next table: 3680
cur table: 2110
epoch: 1000
next table: 2083
cur table: 3680
epoch: 1000
next table: 3145
cur table: 2530
epoch: 1000
next table: 2067
cur table: 2083
epoch: 1000
next table: 2077
cur table: 2067
epoch: 1000
next table: 3316
cur table: 3145
epoch: 1000
next table: 2679
cur table: 2077
epoch: 1000
next table: 5096
cur table: 2679
epoch: 1000
next table: 3146
cur table: 3316
epoch: 1000
next table: 2078
cur table: 5096
epoch: 1000
next table: 2079
cur table: 2078
epoch: 1000
next table: 2232
cur table: 3146
epoch: 1000
next table: 2064
cur table: 2079
epoch: 1000
next table: 1960
cur table: 2232
epoch: 1000
next table: 1892
cur table: 1960
epoch: 1000
next table: 2063
cur table: 2064
epoch: 1000
next table: 1856
cur table: 1892
epoch: 1000
next table: 2070
cur table: 2063
epoch: 1000
next table: 1870
cur table: 1856
epoch: 1000
next table: 2084
cur table: 2070
epoch: 1000
next table: 1847
cur table: 1870
epoch: 1000
next table: 2066
cur table: 2084
epoch: 1000
next table: 1882
cur table: 1847
epoch: 1000
next table: 2281
cur table: 2066
epoch: 1000
next table: 2790
cur table: 2281
epoch: 1000
next table: 3156
cur table: 1882
epoch: 1000
next table: 5909
cur table: 2790
epoch: 1000
next table: 2484
cur table: 5909
epoch: 1000
next table: 3004
cur table: 3156
epoch: 1000
next table: 2890
cur table: 2484
epoch: 1000
next table: 3779
cur table: 2890
epoch: 1000
next table: 2613
cur table: 3004
epoch: 1000
next table: 2084
cur table: 3779
epoch: 1000
next table: 2562
cur table: 2613
epoch: 1000
next table: 2049
cur table: 2084
epoch: 1000
next table: 2049
cur table: 2049
epoch: 1000
next table: 2505
cur table: 2562
epoch: 1000
next table: 2173
cur table: 2049
epoch: 1000
next table: 2167
cur table: 2173
epoch: 1000
next table: 2678
cur table: 2505
epoch: 1000
next table: 2187
cur table: 2167
epoch: 1000
next table: 2834
cur table: 2678
epoch: 1000
next table: 2171
cur table: 2187
epoch: 1000
next table: 2168
cur table: 2171
epoch: 1000
next table: 2175
cur table: 2168
epoch: 1000
next table: 3182
cur table: 2834
epoch: 1000
next table: 2158
cur table: 2175
epoch: 1000
next table: 2168
cur table: 2158
epoch: 1000
next table: 3361
cur table: 3182
epoch: 1000
next table: 2175
cur table: 2168
epoch: 1000
next table: 2145
cur table: 3361
epoch: 1000
next table: 2174
cur table: 2175
epoch: 1000
next table: 1980
cur table: 2145
epoch: 1000
next table: 2166
cur table: 2174
epoch: 1000
next table: 1936
cur table: 1980
epoch: 1000
next table: 2172
cur table: 2166
epoch: 1000
next table: 1964
cur table: 1936
epoch: 1000
next table: 2173
cur table: 2172
epoch: 1000
next table: 1956
cur table: 1964
epoch: 1000
next table: 2159
cur table: 2173
epoch: 1000
next table: 1964
cur table: 1956
epoch: 1000
next table: 2167
cur table: 2159
epoch: 1000
next table: 1935
cur table: 1964
epoch: 1000
next table: 2175
cur table: 2167
epoch: 1000
next table: 1913
cur table: 1935
epoch: 1000
next table: 2164
cur table: 2175
epoch: 1000
next table: 1920
cur table: 1913
epoch: 1000
next table: 2162
cur table: 2164
epoch: 1000
next table: 1927
cur table: 1920
epoch: 1000
next table: 2173
cur table: 2162
epoch: 1000
next table: 1974
cur table: 1927
epoch: 1000
next table: 2170
cur table: 2173
epoch: 1000
next table: 1940
cur table: 1974
epoch: 1000
next table: 2169
cur table: 2170
epoch: 1000
next table: 1897
cur table: 1940
epoch: 1000
next table: 2168
cur table: 2169
epoch: 1000
next table: 1932
cur table: 1897
epoch: 1000
next table: 2168
cur table: 2168
epoch: 1000
next table: 1925
cur table: 1932
epoch: 1000
next table: 2182
cur table: 2168
epoch: 1000
next table: 1935
cur table: 1925
epoch: 1000
next table: 1902
cur table: 1935
epoch: 1000
next table: 2170
cur table: 2182
epoch: 1000
next table: 1933
cur table: 1902
epoch: 1000
next table: 2168
cur table: 2170
epoch: 1000
next table: 1904
cur table: 1933
epoch: 1000
next table: 2169
cur table: 2168
epoch: 1000
next table: 2019
cur table: 1904
epoch: 1000
next table: 2157
cur table: 2169
epoch: 1000
next table: 2029
cur table: 2019
epoch: 1000
next table: 2174
cur table: 2157
epoch: 1000
next table: 2021
cur table: 2029
epoch: 1000
next table: 2181
cur table: 2174
epoch: 1000
next table: 2168
cur table: 2181
epoch: 1000
next table: 2015
cur table: 2021
epoch: 1000
next table: 1930
cur table: 2015
epoch: 1000
next table: 2169
cur table: 2168
epoch: 1000
next table: 1939
cur table: 1930
epoch: 1000
next table: 2169
cur table: 2169
epoch: 1000
next table: 1951
cur table: 1939
epoch: 1000
next table: 2174
cur table: 2169
epoch: 1000
next table: 1925
cur table: 1951
epoch: 1000
next table: 2162
cur table: 2174
epoch: 1000
next table: 1940
cur table: 1925
epoch: 1000
next table: 2173
cur table: 2162
epoch: 1000
next table: 1927
cur table: 1940
epoch: 1000
next table: 2166
cur table: 2173
epoch: 1000
next table: 1955
cur table: 1927
epoch: 1000
next table: 2174
cur table: 2166
epoch: 1000
next table: 1926
cur table: 1955
epoch: 1000
next table: 2163
cur table: 2174
epoch: 1000
next table: 1923
cur table: 1926
epoch: 1000
next table: 2176
cur table: 2163
epoch: 1000
next table: 1955
cur table: 1923
epoch: 1000
next table: 2169
cur table: 2176
epoch: 1000
next table: 2126
cur table: 2169
epoch: 1000
next table: 2524
cur table: 1955
epoch: 1000
next table: 4920
cur table: 2126
epoch: 1000
next table: 2752
cur table: 2524
epoch: 1000
next table: 2157
cur table: 4920
epoch: 1000
next table: 2072
cur table: 2157
epoch: 1000
next table: 2073
cur table: 2072
epoch: 1000
next table: 3344
cur table: 2752
epoch: 1000
next table: 5088
cur table: 2073
epoch: 1000
next table: 2551
cur table: 5088
epoch: 1000
next table: 3210
cur table: 3344
epoch: 1000
next table: 2076
cur table: 2551
epoch: 1000
next table: 2313
cur table: 3210
epoch: 1000
next table: 2076
cur table: 2076
epoch: 1000
next table: 5543
cur table: 2076
epoch: 1000
next table: 2982
cur table: 2313
epoch: 1000
next table: 4188
cur table: 5543
epoch: 1000
next table: 3056
cur table: 4188
epoch: 1000
next table: 2531
cur table: 2982
epoch: 1000
next table: 2073
cur table: 3056
epoch: 1000
next table: 2087
cur table: 2531
epoch: 1000
next table: 2072
cur table: 2073
epoch: 1000
next table: 2116
cur table: 2087
epoch: 1000
next table: 2073
cur table: 2072
epoch: 1000
next table: 2086
cur table: 2116
epoch: 1000
next table: 2074
cur table: 2073
epoch: 1000
next table: 2535
cur table: 2074
epoch: 1000
next table: 2584
cur table: 2086
epoch: 1000
next table: 2315
cur table: 2535
epoch: 1000
next table: 2046
cur table: 2315
epoch: 1000
next table: 2743
cur table: 2584
epoch: 1000
next table: 2063
cur table: 2046
epoch: 1000
next table: 2711
cur table: 2743
epoch: 1000
next table: 2150
cur table: 2063
epoch: 1000
next table: 2169
cur table: 2150
epoch: 1000
next table: 2741
cur table: 2711
epoch: 1000
next table: 2171
cur table: 2169
epoch: 1000
next table: 2188
cur table: 2171
epoch: 1000
next table: 2942
cur table: 2741
epoch: 1000
next table: 2161
cur table: 2188
epoch: 1000
next table: 2167
cur table: 2161
epoch: 1000
[...]
cur table: 2197
epoch: 1000
next table: 2165
cur table: 2185
epoch: 1000
next table: 2089
cur table: 2123
epoch: 1000
next table: 2172
cur table: 2165
epoch: 1000
next table: 2146
cur table: 2089
epoch: 1000
next table: 2184
cur table: 2172
epoch: 1000
next table: 2181
cur table: 2146
epoch: 1000
next table: 2159
cur table: 2184
epoch: 1000
next table: 2167
cur table: 2159
epoch: 1000
next table: 2121
cur table: 2181
epoch: 1000
next table: 2178
cur table: 2167
epoch: 1000
next table: 2139
cur table: 2121
epoch: 1000
next table: 2175
cur table: 2178
epoch: 1000
next table: 2064
cur table: 2139
epoch: 1000
next table: 2181
cur table: 2175
epoch: 1000
next table: 2070
cur table: 2064
epoch: 1000
next table: 2180
cur table: 2181
epoch: 1000
next table: 2076
cur table: 2070
epoch: 1000
next table: 2163
cur table: 2180
epoch: 1000
next table: 2036
cur table: 2076
epoch: 1000
next table: 2166
cur table: 2163
epoch: 1000
next table: 2047
cur table: 2036
epoch: 1000
next table: 2163
cur table: 2166
epoch: 1000
next table: 2073
cur table: 2047
epoch: 1000
next table: 2167
cur table: 2163
epoch: 1000
next table: 2170
cur table: 2167
epoch: 1000
next table: 2090
cur table: 2073
epoch: 1000
next table: 2186
cur table: 2170
epoch: 1000
next table: 2126
cur table: 2090
epoch: 1000
next table: 2169
cur table: 2186
epoch: 1000
next table: 2087
cur table: 2126
epoch: 1000
next table: 2166
cur table: 2169
epoch: 1000
next table: 2091
cur table: 2087
epoch: 1000
next table: 2177
cur table: 2166
epoch: 1000
next table: 2058
cur table: 2091
epoch: 1000
next table: 2169
cur table: 2177
epoch: 1000
next table: 2103
cur table: 2058
epoch: 1000
next table: 2166
cur table: 2169
epoch: 1000
next table: 2011
cur table: 2103
epoch: 1000
next table: 2180
cur table: 2166
epoch: 1000
next table: 2077
cur table: 2011
epoch: 1000
next table: 2184
cur table: 2180
epoch: 1000
next table: 2013
cur table: 2077
epoch: 1000
next table: 2167
cur table: 2184
epoch: 1000
next table: 2068
cur table: 2013
epoch: 1000
next table: 2172
cur table: 2167
epoch: 1000
next table: 2179
cur table: 2172
epoch: 1000
next table: 2135
cur table: 2068
epoch: 1000
next table: 2152
cur table: 2179
epoch: 1000
next table: 2472
cur table: 2135
epoch: 1000
next table: 2232
cur table: 2152
Heartbeat CPU 0 instructions: 100000003 cycles: 190990071 heartbeat IPC: 0.281651 cumulative IPC: 0.285291 (Simulation time: 0 hr 25 min 45 sec) 
Finished CPU 0 instructions: 50000000 cycles: 175259896 cumulative IPC: 0.285291 (Simulation time: 0 hr 25 min 45 sec) 

ChampSim completed all CPUs

Region of Interest Statistics

CPU 0 cumulative IPC: 0.285291 instructions: 50000000 cycles: 175259896
ITLB TOTAL     ACCESS:    7795784  HIT:    7764047  MISS:      31737  HIT %:    99.5929  MISS %:   0.407105   MPKI: 0.63474
ITLB LOAD TRANSLATION ACCESS:    7795784  HIT:    7764047  MISS:      31737  HIT %:    99.5929  MISS %:   0.407105   MPKI: 0.63474
ITLB PREFETCH  REQUESTED:          0  ISSUED:          0  USEFUL:          0  USELESS:          0
ITLB USEFUL LOAD PREFETCHES:          0 PREFETCH ISSUED TO LOWER LEVEL:          0  ACCURACY: -nan
ITLB TIMELY PREFETCHES:          0 LATE PREFETCHES: 0 DROPPED PREFETCHES: 0
ITLB PREFETCHES SAME FILL-ORIGIN LEVEL: 0 DIFFERENT FILL-ORIGIN LEVEL: 0
ITLB AVERAGE MISS LATENCY: 16.5624 cycles
ITLB RQ	ACCESS:    8958790	FORWARD:          0	MERGED:    1155525	TO_CACHE:    7803265

Revised Interactions: positive negative neutral
ITLB_interactions 0 0 0 -nan -nan -nan
DTLB TOTAL     ACCESS:   10411535  HIT:   10074223  MISS:     337312  HIT %:    96.7602  MISS %:    3.23979   MPKI: 6.74624
DTLB LOAD TRANSLATION ACCESS:   10411535  HIT:   10074223  MISS:     337312  HIT %:    96.7602  MISS %:    3.23979   MPKI: 6.74624
DTLB PREFETCH  REQUESTED:          0  ISSUED:          0  USEFUL:          0  USELESS:          0
DTLB USEFUL LOAD PREFETCHES:          0 PREFETCH ISSUED TO LOWER LEVEL:          0  ACCURACY: -nan
DTLB TIMELY PREFETCHES:          0 LATE PREFETCHES: 0 DROPPED PREFETCHES: 0
DTLB PREFETCHES SAME FILL-ORIGIN LEVEL: 0 DIFFERENT FILL-ORIGIN LEVEL: 0
DTLB AVERAGE MISS LATENCY: 57.929 cycles
DTLB RQ	ACCESS:   11488210	FORWARD:          0	MERGED:    1034031	TO_CACHE:   10454179

Revised Interactions: positive negative neutral
DTLB_interactions 0 0 0 -nan -nan -nan
STLB TOTAL     ACCESS:     369049  HIT:     114568  MISS:     254481  HIT %:    31.0441  MISS %:    68.9559   MPKI: 5.08962
STLB LOAD TRANSLATION ACCESS:     369049  HIT:     114568  MISS:     254481  HIT %:    31.0441  MISS %:    68.9559   MPKI: 5.08962
STLB PREFETCH  REQUESTED:          0  ISSUED:          0  USEFUL:          0  USELESS:          0
STLB USEFUL LOAD PREFETCHES:          0 PREFETCH ISSUED TO LOWER LEVEL:          0  ACCURACY: -nan
STLB TIMELY PREFETCHES:          0 LATE PREFETCHES: 0 DROPPED PREFETCHES: 0
STLB PREFETCHES SAME FILL-ORIGIN LEVEL: 0 DIFFERENT FILL-ORIGIN LEVEL: 0
STLB AVERAGE MISS LATENCY: 65.754 cycles
STLB RQ	ACCESS:     369049	FORWARD:          0	MERGED:          0	TO_CACHE:     369049

Revised Interactions: positive negative neutral
STLB_interactions 0 0 0 -nan -nan -nan
STLB Hit, L1D data hit: 0
STLB Hit, L2C data hit: 0
STLB Hit, LLC data hit: 0
STLB Hit, LLC data miss: 0
STLB STLB hints to L2: 0
L1D TOTAL     ACCESS:   11391501  HIT:   10036149  MISS:    1355352  HIT %:    88.1021  MISS %:    11.8979   MPKI: 27.107
L1D LOAD      ACCESS:    9047364  HIT:    7712097  MISS:    1335267  HIT %:    85.2414  MISS %:    14.7586   MPKI: 26.7053
L1D RFO       ACCESS:    2344137  HIT:    2324052  MISS:      20085  HIT %:    99.1432  MISS %:   0.856819   MPKI: 0.4017
L1D PREFETCH  REQUESTED:          0  ISSUED:          0  USEFUL:          0  USELESS:          0
L1D USEFUL LOAD PREFETCHES:          0 PREFETCH ISSUED TO LOWER LEVEL:          0  ACCURACY: -nan
L1D TIMELY PREFETCHES:          0 LATE PREFETCHES: 0 DROPPED PREFETCHES: 0
L1D PREFETCHES SAME FILL-ORIGIN LEVEL: 0 DIFFERENT FILL-ORIGIN LEVEL: 0
L1D AVERAGE MISS LATENCY: 92.6343 cycles
L1D RQ	ACCESS:   14681560	FORWARD:          0	MERGED:    5529339	TO_CACHE:    9092292
L1D WQ	ACCESS:    2425925	FORWARD:      59929	MERGED:      30007	TO_CACHE:    2395918

Revised Interactions: positive negative neutral
L1D_interactions 0 0 0 -nan -nan -nan
L1D UNIQUE REGIONS ACCESSED: 0
L1D REGIONS CONFLICTS: 0
L1D Cross Page Prefetch Requests: 0
L1D Same Page Prefetch Requests: 0
L1D ROI Sum of L1D PQ occupancy: 0
L1D PREFETCHES PUSHED FROM L2C: 0
L1I TOTAL     ACCESS:    8909498  HIT:    8733448  MISS:     176050  HIT %:     98.024  MISS %:    1.97598   MPKI: 3.521
L1I LOAD      ACCESS:    8909498  HIT:    8733448  MISS:     176050  HIT %:     98.024  MISS %:    1.97598   MPKI: 3.521
L1I PREFETCH  REQUESTED:          0  ISSUED:          0  USEFUL:          0  USELESS:          0
L1I USEFUL LOAD PREFETCHES:          0 PREFETCH ISSUED TO LOWER LEVEL:          0  ACCURACY: -nan
L1I TIMELY PREFETCHES:          0 LATE PREFETCHES: 0 DROPPED PREFETCHES: 0
L1I PREFETCHES SAME FILL-ORIGIN LEVEL: 0 DIFFERENT FILL-ORIGIN LEVEL: 0
L1I AVERAGE MISS LATENCY: 30.0148 cycles
L1I RQ	ACCESS:   15131161	FORWARD:          0	MERGED:    6172371	TO_CACHE:    8958790

Revised Interactions: positive negative neutral
L1I_interactions 0 0 0 -nan -nan -nan
BTB TOTAL     ACCESS:    8240387  HIT:    8162325  MISS:      78062  HIT %:    99.0527  MISS %:    0.94731   MPKI: 1.56124
BTB BRANCH_DIRECT_JUMP	ACCESS:     125745  HIT:     125105  MISS:        640
BTB BRANCH_INDIRECT	ACCESS:      22046  HIT:       8847  MISS:      13199
BTB BRANCH_CONDITIONAL	ACCESS:    6916732  HIT:    6913884  MISS:       2848
BTB BRANCH_DIRECT_CALL	ACCESS:     323608  HIT:     322533  MISS:       1075
BTB BRANCH_INDIRECT_CALL	ACCESS:     264324  HIT:     261288  MISS:       3036
BTB BRANCH_RETURN	ACCESS:     587932  HIT:     530668  MISS:      57264
BTB BRANCH_OTHER ACCESS:          0  HIT:          0  MISS:          0

L2C TOTAL     ACCESS:    1909906  HIT:     575915  MISS:    1333991  HIT %:    30.1541  MISS %:    69.8459   MPKI: 26.6798
L2C LOAD      ACCESS:    1511317  HIT:     272140  MISS:    1239177  HIT %:    18.0068  MISS %:    81.9932   MPKI: 24.7835
L2C DATA LOAD MPKI: 24.1949
L2C INSTRUCTION LOAD MPKI: 0.58862
L2C RFO       ACCESS:      20082  HIT:       6374  MISS:      13708  HIT %:    31.7399  MISS %:    68.2601   MPKI: 0.27416
L2C PREFETCH  ACCESS:      85163  HIT:      64430  MISS:      20733  HIT %:    75.6549  MISS %:    24.3451   MPKI: 0.41466
L2C DATA PREFETCH MPKI: 0.41466
L2C INSTRUCTION PREFETCH MPKI: 0
L2C WRITEBACK ACCESS:      37682  HIT:      35872  MISS:       1810  HIT %:    95.1966  MISS %:    4.80335   MPKI: 0.0362
L2C LOAD TRANSLATION ACCESS:     255662  HIT:     197099  MISS:      58563  HIT %:    77.0936  MISS %:    22.9064   MPKI: 1.17126
L2C PREFETCH  REQUESTED:    1028995  ISSUED:    1028995  USEFUL:      16999  USELESS:       3741
L2C USEFUL LOAD PREFETCHES:      16999 PREFETCH ISSUED TO LOWER LEVEL:     757839  ACCURACY: 2.24309
L2C TIMELY PREFETCHES:      16999 LATE PREFETCHES: 4999 DROPPED PREFETCHES: 0
L2C PREFETCHES SAME FILL-ORIGIN LEVEL: 25732 DIFFERENT FILL-ORIGIN LEVEL: 732107
L2C AVERAGE MISS LATENCY: 88.1991 cycles
L2C RQ	ACCESS:    1787064	FORWARD:          0	MERGED:          0	TO_CACHE:    1787061
L2C WQ	ACCESS:      37682	FORWARD:          3	MERGED:          0	TO_CACHE:      37682
L2C PQ	ACCESS:    1028995	FORWARD:          0	MERGED:      56303	TO_CACHE:     972692

Revised Interactions: positive negative neutral
L2C_interactions 17251 3752 3402 70.6863 15.3739 13.9398
L2C Instructions Evicting Data 26053
L2C Translations Evicting Data 54703
L2C Data Evicting Data 1163868
L2C Instructions Evicting Instructions 1733
L2C Translations Evicting Instructions 1189
L2C Data Evicting Instructions 26346
L2C Instructions Evicting Translations 1645
L2C Translations Evicting Translations 2671
L2C Data Evicting Translations 53973
L2C Dense regions hint from L2: 0
PSCL5 TOTAL     ACCESS:     254481  HIT:     254481  MISS:          0  HIT %:        100  MISS %:          0   MPKI: 0
PSCL5 LOAD TRANSLATION ACCESS:     254481  HIT:     254481  MISS:          0  HIT %:        100  MISS %:          0   MPKI: 0
PSCL5 PREFETCH  REQUESTED:          0  ISSUED:          0  USEFUL:          0  USELESS:          0
PSCL5 USEFUL LOAD PREFETCHES:          0 PREFETCH ISSUED TO LOWER LEVEL:          0  ACCURACY: -nan
PSCL5 TIMELY PREFETCHES:          0 LATE PREFETCHES: 0 DROPPED PREFETCHES: 0
PSCL5 PREFETCHES SAME FILL-ORIGIN LEVEL: 0 DIFFERENT FILL-ORIGIN LEVEL: 0

Revised Interactions: positive negative neutral
PSCL5_interactions 0 0 0 -nan -nan -nan
PSCL4 TOTAL     ACCESS:     254481  HIT:     254481  MISS:          0  HIT %:        100  MISS %:          0   MPKI: 0
PSCL4 LOAD TRANSLATION ACCESS:     254481  HIT:     254481  MISS:          0  HIT %:        100  MISS %:          0   MPKI: 0
PSCL4 PREFETCH  REQUESTED:          0  ISSUED:          0  USEFUL:          0  USELESS:          0
PSCL4 USEFUL LOAD PREFETCHES:          0 PREFETCH ISSUED TO LOWER LEVEL:          0  ACCURACY: -nan
PSCL4 TIMELY PREFETCHES:          0 LATE PREFETCHES: 0 DROPPED PREFETCHES: 0
PSCL4 PREFETCHES SAME FILL-ORIGIN LEVEL: 0 DIFFERENT FILL-ORIGIN LEVEL: 0

Revised Interactions: positive negative neutral
PSCL4_interactions 0 0 0 -nan -nan -nan
PSCL3 TOTAL     ACCESS:     254481  HIT:     254481  MISS:          0  HIT %:        100  MISS %:          0   MPKI: 0
PSCL3 LOAD TRANSLATION ACCESS:     254481  HIT:     254481  MISS:          0  HIT %:        100  MISS %:          0   MPKI: 0
PSCL3 PREFETCH  REQUESTED:          0  ISSUED:          0  USEFUL:          0  USELESS:          0
PSCL3 USEFUL LOAD PREFETCHES:          0 PREFETCH ISSUED TO LOWER LEVEL:          0  ACCURACY: -nan
PSCL3 TIMELY PREFETCHES:          0 LATE PREFETCHES: 0 DROPPED PREFETCHES: 0
PSCL3 PREFETCHES SAME FILL-ORIGIN LEVEL: 0 DIFFERENT FILL-ORIGIN LEVEL: 0

Revised Interactions: positive negative neutral
PSCL3_interactions 0 0 0 -nan -nan -nan
PSCL2 TOTAL     ACCESS:     254481  HIT:     253300  MISS:       1181  HIT %:    99.5359  MISS %:   0.464082   MPKI: 0.02362
PSCL2 LOAD TRANSLATION ACCESS:     254481  HIT:     253300  MISS:       1181  HIT %:    99.5359  MISS %:   0.464082   MPKI: 0.02362
PSCL2 PREFETCH  REQUESTED:          0  ISSUED:          0  USEFUL:          0  USELESS:          0
PSCL2 USEFUL LOAD PREFETCHES:          0 PREFETCH ISSUED TO LOWER LEVEL:          0  ACCURACY: -nan
PSCL2 TIMELY PREFETCHES:          0 LATE PREFETCHES: 0 DROPPED PREFETCHES: 0
PSCL2 PREFETCHES SAME FILL-ORIGIN LEVEL: 0 DIFFERENT FILL-ORIGIN LEVEL: 0

Revised Interactions: positive negative neutral
PSCL2_interactions 0 0 0 -nan -nan -nan
LLC TOTAL     ACCESS:    2056054  HIT:    1021477  MISS:    1034577  HIT %:    49.6814  MISS %:    50.3186   MPKI: 20.6915
LLC LOAD      ACCESS:    1234178  HIT:     594748  MISS:     639430  HIT %:    48.1898  MISS %:    51.8102   MPKI: 12.7886
LLC RFO       ACCESS:      13707  HIT:       4418  MISS:       9289  HIT %:    32.2317  MISS %:    67.7683   MPKI: 0.18578
LLC PREFETCH  ACCESS:     728098  HIT:     394043  MISS:     334055  HIT %:    54.1195  MISS %:    45.8805   MPKI: 6.6811
LLC WRITEBACK ACCESS:      21508  HIT:      12324  MISS:       9184  HIT %:    57.2996  MISS %:    42.7004   MPKI: 0.18368
LLC LOAD TRANSLATION ACCESS:      58563  HIT:      15944  MISS:      42619  HIT %:    27.2254  MISS %:    72.7746   MPKI: 0.85238
LLC PREFETCH  REQUESTED:          0  ISSUED:          0  USEFUL:      19164  USELESS:     315764
LLC USEFUL LOAD PREFETCHES:      19164 PREFETCH ISSUED TO LOWER LEVEL:     354414  ACCURACY: 5.40724
LLC TIMELY PREFETCHES:      19164 LATE PREFETCHES: 20359 DROPPED PREFETCHES: 0
LLC PREFETCHES SAME FILL-ORIGIN LEVEL: 350148 DIFFERENT FILL-ORIGIN LEVEL: 0
LLC AVERAGE MISS LATENCY: 110.544 cycles
LLC RQ	ACCESS:    1306449	FORWARD:          0	MERGED:          0	TO_CACHE:    1306448
LLC WQ	ACCESS:      21508	FORWARD:          1	MERGED:          0	TO_CACHE:      21508
LLC PQ	ACCESS:     757839	FORWARD:          0	MERGED:       2316	TO_CACHE:     755523

Revised Interactions: positive negative neutral
LLC_interactions 18856 315426 204048 3.50268 58.5934 37.9039
LLC Dense regions hint to LLC: 0

RAW hits: 60498
Loads Generated: 14742059
Loads sent to L1D: 14681560
Stores Generated: 2425920
Stores sent to L1D: 2425925
Major fault: 0 Minor fault: 11043
Allocated PAGES: 11043
 All Calls: 2698380
 Critical Calls: 2698380
------------------
Depth Distribution
------------------
depth 0: 0
depth 1: 1903066
depth 2: 293837
depth 3: 32289
depth 4: 8041
depth 5: 2280
depth 6: 1096
depth 7: 317
depth 8: 94
depth 9: 0
depth 10: 0
depth 11: 0
depth 12: 0
depth 13: 0
depth 14: 0
depth 15: 0
depth 16: 0
depth 17: 0
depth 18: 0
depth 19: 0
depth 20: 0
depth 21: 0
depth 22: 0
depth 23: 0
depth 24: 0
depth 25: 0
depth 26: 0
depth 27: 0
depth 28: 0
depth 29: 0
Total: 2241020
-----------------------------
-----------------------------
	Captured at Filter
-----------------------------
depth 0: 0
depth 1: 3898
depth 2: 444
depth 3: 129
depth 4: 33
depth 5: 10
depth 6: 3
depth 7: 3
depth 8: 0
depth 9: 0
depth 10: 0
depth 11: 0
depth 12: 0
depth 13: 0
depth 14: 0
depth 15: 0
depth 16: 0
depth 17: 0
depth 18: 0
depth 19: 0
depth 20: 0
depth 21: 0
depth 22: 0
depth 23: 0
depth 24: 0
depth 25: 0
depth 26: 0
depth 27: 0
depth 28: 0
depth 29: 0
-----------------------------
-----------------------------
		Lost at Page
-----------------------------
depth 0: 0
depth 1: 38799
depth 2: 5770
depth 3: 1592
depth 4: 622
depth 5: 207
depth 6: 121
depth 7: 46
depth 8: 16
depth 9: 0
depth 10: 0
depth 11: 0
depth 12: 0
depth 13: 0
depth 14: 0
depth 15: 0
depth 16: 0
depth 17: 0
depth 18: 0
depth 19: 0
depth 20: 0
depth 21: 0
depth 22: 0
depth 23: 0
depth 24: 0
depth 25: 0
depth 26: 0
depth 27: 0
depth 28: 0
depth 29: 0
-----------------------------
-----------------------------
	Lost due to PQ Size
-----------------------------
160
-----------------------------
ST read accesses: 1062937
ST write accesses: 272330
PT read accesses: 14353389
PT write accesses: 1311421
FILTER read accesses: 3700147
FILTER write accesses: 1411203
GHR read accesses: 2327139
GHR write accesses: 20695
GHR counter read accesses: 11988162
GHR counter write accesses: 1397973
ST tag read accesses: 652439399
ST tag write accesses: 74892100

DRAM Statistics
 CHANNEL 0
 RQ ROW_BUFFER_HIT:     641473  ROW_BUFFER_MISS:     383920
 DBUS_CONGESTED:        217
 WQ ROW_BUFFER_HIT:       1022  ROW_BUFFER_MISS:      11597  FULL:          0

 AVG_CONGESTED_CYCLE: 5
 All warmup complete: 2
Channel 0 Bank busy for read cycles: 0
Channel 0 Bank busy for write cycles: 0
Channel 0
Rank 0
0banks busy for read cycles: 119641939
0banks busy for write cycles: 11651
1banks busy for read cycles: 30450362
1banks busy for write cycles: 2028665
2banks busy for read cycles: 14006240
2banks busy for write cycles: 118300
3banks busy for read cycles: 5817482
3banks busy for write cycles: 12224
4banks busy for read cycles: 2353707
4banks busy for write cycles: 1513
5banks busy for read cycles: 629118
5banks busy for write cycles: 862
6banks busy for read cycles: 137234
6banks busy for write cycles: 1028
7banks busy for read cycles: 30739
7banks busy for write cycles: 188
8banks busy for read cycles: 18645
8banks busy for write cycles: 0

CPU 0 Branch Prediction Accuracy: 94.9771% MPKI: 13.0224 Average ROB Occupancy at Mispredict: 36.8096
Branch types
NOT_BRANCH: 37037113 74.0742%
BRANCH_DIRECT_JUMP: 125745 0.25149%
BRANCH_INDIRECT: 22046 0.044092%
BRANCH_CONDITIONAL: 11639280 23.2786%
BRANCH_DIRECT_CALL: 323608 0.647216%
BRANCH_INDIRECT_CALL: 264324 0.528648%
BRANCH_RETURN: 587932 1.17586%
BRANCH_OTHER: 0 0%

@sumon_overall_L1D         0         0         0         0         0         0         0
@Sumon_Early_by_class_L1D         0         0         0         0
@Sumon_Late_by_class_L1D         0         0         0         0

@Sumon_Early_by_cycle_L1D         0         0         0         0         0         0         0         0         0         0         0         0
@Sumon_Late_by_cycle_L1D         0         0         0         0         0         0
@Sumon_Early_stream_L1D         0         0         0         0         0         0         0         0         0         0         0         0
@Sumon_Early_CS_L1D         0         0         0         0         0         0         0         0         0         0         0         0
@Sumon_Early_CPLX_L1D         0         0         0         0         0         0         0         0         0         0         0         0
@Sumon_Late_stream_L1D         0         0         0         0         0         0
@Sumon_Late_CS_L1D         0         0         0         0         0         0
@Sumon_Late_CPLX_L1D         0         0         0         0         0         0
@sumon_overall_L2C     16999      4999         0      3741     20733   1028995   1028995
@Sumon_Early_by_class_L2C         0         0         0         0
@Sumon_Late_by_class_L2C         0         0         0         0

@Sumon_Early_by_cycle_L2C      7998      4508       716        33        11       542       165      2840        45        94        24        23
@Sumon_Late_by_cycle_L2C      1498       769      1122       669       941         0
@Sumon_Early_stream_L2C         0         0         0         0         0         0         0         0         0         0         0         0
@Sumon_Early_CS_L2C         0         0         0         0         0         0         0         0         0         0         0         0
@Sumon_Early_CPLX_L2C         0         0         0         0         0         0         0         0         0         0         0         0
@Sumon_Late_stream_L2C         0         0         0         0         0         0
@Sumon_Late_CS_L2C         0         0         0         0         0         0
@Sumon_Late_CPLX_L2C         0         0         0         0         0         0
DRAM PAGES: 1048576
Allocated PAGES: 11043
