Initialize SIGNATURE TABLE
ST_SET: 1
ST_WAY: 256
ST_TAG_BIT: 16
ST_TAG_MASK: ffff

Initialize PATTERN TABLE
PT_SET: 512
PT_WAY: 4
SIG_DELTA_BIT: 7
C_SIG_BIT: 4
C_DELTA_BIT: 4

Initialize PREFETCH FILTER
FILTER_SET: 1024

*** ChampSim Multicore Out-of-Order Simulator ***

Warmup Instructions: 50000000
Simulation Instructions: 50000000
Number of CPUs: 1
LLC sets: 2048
LLC ways: 16
Off-chip DRAM Size: 4096 MB Channels: 1 Width: 64-bit Data Rate: 6400 MT/s
CPU 0 runs ../../biswa/SPEC2017Traces/649.fotonik3d_s-1176B.champsimtrace.xz
.xz
CPU 0 Bimodal branch predictor
BTB has LRU replacement policy
ITLB has LRU replacement policy
DTLB has LRU replacement policy
STLB has LRU replacement policy
L1I has LRU replacement policy
L1D has LRU replacement policy
ST_WAYS: 256
PT_SETS: 512
Initialize DRRIP state for L2C
Initialize DRRIP state for LLC
epoch: 1000
next table: 2510
cur table: 11862
epoch: 1000
next table: 2520
cur table: 2510
epoch: 1000
next table: 2510
cur table: 2520
epoch: 1000
next table: 2545
cur table: 2510
epoch: 1000
next table: 2506
cur table: 2545
epoch: 1000
next table: 2515
cur table: 2506
epoch: 1000
next table: 2513
cur table: 2515
epoch: 1000
next table: 2535
cur table: 2513
epoch: 1000
next table: 2513
cur table: 2535
epoch: 1000
next table: 2521
cur table: 2513
epoch: 1000
next table: 2511
cur table: 2521
epoch: 1000
next table: 2541
cur table: 2511
epoch: 1000
next table: 2513
cur table: 2541
epoch: 1000
next table: 2516
cur table: 2513
epoch: 1000
next table: 2513
cur table: 2516
epoch: 1000
next table: 2540
cur table: 2513
epoch: 1000
next table: 2513
cur table: 2540
epoch: 1000
next table: 2518
cur table: 2513
epoch: 1000
next table: 2513
cur table: 2518
epoch: 1000
next table: 2538
cur table: 2513
epoch: 1000
next table: 2511
cur table: 2538
epoch: 1000
next table: 2520
cur table: 2511
epoch: 1000
next table: 2514
cur table: 2520
epoch: 1000
next table: 2537
cur table: 2514
epoch: 1000
next table: 2513
cur table: 2537
epoch: 1000
next table: 1867
cur table: 10832
epoch: 1000
next table: 2519
cur table: 2513
epoch: 1000
next table: 1378
cur table: 1867
epoch: 1000
next table: 2512
cur table: 2519
epoch: 1000
next table: 1345
cur table: 1378
epoch: 1000
next table: 2538
cur table: 2512
epoch: 1000
next table: 1316
cur table: 1345
epoch: 1000
next table: 2514
cur table: 2538
epoch: 1000
next table: 1311
cur table: 1316
epoch: 1000
next table: 2519
cur table: 2514
epoch: 1000
next table: 1301
cur table: 1311
epoch: 1000
next table: 2513
cur table: 2519
epoch: 1000
next table: 1315
cur table: 1301
epoch: 1000
next table: 2544
cur table: 2513
epoch: 1000
next table: 1307
cur table: 1315
epoch: 1000
next table: 2512
cur table: 2544
epoch: 1000
next table: 1310
cur table: 1307
epoch: 1000
next table: 2519
cur table: 2512
epoch: 1000
next table: 1305
cur table: 1310
epoch: 1000
next table: 2511
cur table: 2519
epoch: 1000
next table: 1307
cur table: 1305
epoch: 1000
next table: 2547
cur table: 2511
epoch: 1000
next table: 1310
cur table: 1307
epoch: 1000
next table: 2510
cur table: 2547
epoch: 1000
next table: 1302
cur table: 1310
epoch: 1000
next table: 2519
cur table: 2510
epoch: 1000
next table: 1298
cur table: 1302
epoch: 1000
next table: 2514
cur table: 2519
epoch: 1000
next table: 1317
cur table: 1298
epoch: 1000
next table: 2545
cur table: 2514
epoch: 1000
next table: 1294
cur table: 1317
epoch: 1000
next table: 2510
cur table: 2545
epoch: 1000
next table: 1303
cur table: 1294
epoch: 1000
next table: 2521
cur table: 2510
epoch: 1000
next table: 1308
cur table: 1303
epoch: 1000
next table: 2513
cur table: 2521
epoch: 1000
next table: 1321
cur table: 1308
epoch: 1000
next table: 2529
cur table: 2513
epoch: 1000
next table: 1307
cur table: 1321
epoch: 1000
next table: 2510
cur table: 2529
epoch: 1000
next table: 1310
cur table: 1307
epoch: 1000
next table: 2518
cur table: 2510
epoch: 1000
next table: 1312
cur table: 1310
epoch: 1000
next table: 2512
cur table: 2518
epoch: 1000
next table: 1310
cur table: 1312
epoch: 1000
next table: 2545
cur table: 2512
epoch: 1000
next table: 1292
cur table: 1310
epoch: 1000
next table: 2511
cur table: 2545
epoch: 1000
next table: 1307
cur table: 1292
epoch: 1000
next table: 2520
cur table: 2511
epoch: 1000
next table: 1308
cur table: 1307
epoch: 1000
next table: 2510
cur table: 2520
epoch: 1000
next table: 1324
cur table: 1308
epoch: 1000
next table: 2544
cur table: 2510
epoch: 1000
next table: 1312
cur table: 1324
epoch: 1000
next table: 2512
cur table: 2544
epoch: 1000
next table: 1314
cur table: 1312
epoch: 1000
next table: 2518
cur table: 2512
epoch: 1000
next table: 1313
cur table: 1314
epoch: 1000
next table: 2512
cur table: 2518
epoch: 1000
next table: 1316
cur table: 1313
epoch: 1000
next table: 2542
cur table: 2512
epoch: 1000
next table: 1301
cur table: 1316
epoch: 1000
next table: 2513
cur table: 2542
epoch: 1000
next table: 1316
cur table: 1301
epoch: 1000
next table: 2518
cur table: 2513
epoch: 1000
next table: 1315
cur table: 1316
epoch: 1000
next table: 2510
cur table: 2518
epoch: 1000
next table: 1317
cur table: 1315
epoch: 1000
next table: 2545
cur table: 2510
epoch: 1000
next table: 1310
cur table: 1317
epoch: 1000
next table: 2512
cur table: 2545
epoch: 1000
next table: 1311
cur table: 1310
epoch: 1000
next table: 2518
cur table: 2512
epoch: 1000
next table: 1317
cur table: 1311
epoch: 1000
next table: 2514
cur table: 2518
epoch: 1000
next table: 1321
cur table: 1317
epoch: 1000
next table: 2543
cur table: 2514
epoch: 1000
next table: 1311
cur table: 1321
epoch: 1000
next table: 2513
cur table: 2543
epoch: 1000
next table: 1308
cur table: 1311
epoch: 1000
next table: 2518
cur table: 2513
epoch: 1000
next table: 1299
cur table: 1308
epoch: 1000
next table: 2513
cur table: 2518
epoch: 1000
next table: 1308
cur table: 1299
epoch: 1000
next table: 2545
cur table: 2513
epoch: 1000
next table: 1324
cur table: 1308
epoch: 1000
next table: 2513
cur table: 2545
epoch: 1000
next table: 1318
cur table: 1324
epoch: 1000
next table: 2518
cur table: 2513
epoch: 1000
next table: 1309
cur table: 1318
epoch: 1000
next table: 2513
cur table: 2518
epoch: 1000
next table: 1315
cur table: 1309
epoch: 1000
next table: 2544
cur table: 2513
epoch: 1000
next table: 1306
cur table: 1315
epoch: 1000
next table: 2515
cur table: 2544
epoch: 1000
next table: 1327
cur table: 1306
epoch: 1000
next table: 2516
cur table: 2515
epoch: 1000
next table: 1317
cur table: 1327
epoch: 1000
next table: 2513
cur table: 2516
epoch: 1000
next table: 1323
cur table: 1317
epoch: 1000
next table: 2544
cur table: 2513
epoch: 1000
next table: 1311
cur table: 1323
epoch: 1000
next table: 2515
cur table: 2544
epoch: 1000
next table: 1306
cur table: 1311
epoch: 1000
next table: 2517
cur table: 2515
epoch: 1000
next table: 1320
cur table: 1306
epoch: 1000
next table: 2511
cur table: 2517
epoch: 1000
next table: 1311
cur table: 1320
epoch: 1000
next table: 2541
cur table: 2511
epoch: 1000
next table: 1315
cur table: 1311
Heartbeat CPU 0 instructions: 10000000 cycles: 2913079 heartbeat IPC: 3.43279 cumulative IPC: 3.43279 (Simulation time: 0 hr 2 min 22 sec) 
epoch: 1000
next table: 2513
cur table: 2541
epoch: 1000
next table: 1303
cur table: 1315
epoch: 1000
next table: 2519
cur table: 2513
epoch: 1000
next table: 1317
cur table: 1303
epoch: 1000
next table: 2513
cur table: 2519
epoch: 1000
next table: 1302
cur table: 1317
epoch: 1000
next table: 2541
cur table: 2513
epoch: 1000
next table: 1313
cur table: 1302
epoch: 1000
next table: 2513
cur table: 2541
epoch: 1000
next table: 1322
cur table: 1313
epoch: 1000
next table: 2517
cur table: 2513
epoch: 1000
next table: 1310
cur table: 1322
epoch: 1000
next table: 2511
cur table: 2517
epoch: 1000
next table: 1299
cur table: 1310
epoch: 1000
next table: 2547
cur table: 2511
epoch: 1000
next table: 1304
cur table: 1299
epoch: 1000
next table: 2512
cur table: 2547
epoch: 1000
next table: 1307
cur table: 1304
epoch: 1000
next table: 2517
cur table: 2512
epoch: 1000
next table: 1296
cur table: 1307
epoch: 1000
next table: 2512
cur table: 2517
epoch: 1000
next table: 1307
cur table: 1296
epoch: 1000
next table: 2541
cur table: 2512
epoch: 1000
next table: 1311
cur table: 1307
epoch: 1000
next table: 2512
cur table: 2541
epoch: 1000
next table: 1304
cur table: 1311
epoch: 1000
next table: 2521
cur table: 2512
epoch: 1000
next table: 1309
cur table: 1304
epoch: 1000
next table: 2510
cur table: 2521
epoch: 1000
next table: 1312
cur table: 1309
epoch: 1000
next table: 2546
cur table: 2510
epoch: 1000
next table: 1299
cur table: 1312
epoch: 1000
next table: 2511
cur table: 2546
epoch: 1000
next table: 1304
cur table: 1299
epoch: 1000
next table: 2520
cur table: 2511
epoch: 1000
next table: 1309
cur table: 1304
epoch: 1000
next table: 2512
cur table: 2520
epoch: 1000
next table: 1309
cur table: 1309
epoch: 1000
next table: 2542
cur table: 2512
epoch: 1000
next table: 1314
cur table: 1309
epoch: 1000
next table: 2512
cur table: 2542
epoch: 1000
next table: 1313
cur table: 1314
epoch: 1000
next table: 2519
cur table: 2512
epoch: 1000
next table: 1312
cur table: 1313
epoch: 1000
next table: 2512
cur table: 2519
epoch: 1000
next table: 1321
cur table: 1312
epoch: 1000
next table: 2547
cur table: 2512
epoch: 1000
next table: 1300
cur table: 1321
epoch: 1000
next table: 2513
cur table: 2547
epoch: 1000
next table: 1306
cur table: 1300
epoch: 1000
next table: 2518
cur table: 2513
epoch: 1000
next table: 1292
cur table: 1306
epoch: 1000
next table: 2512
cur table: 2518
epoch: 1000
next table: 1320
cur table: 1292
epoch: 1000
next table: 2545
cur table: 2512
epoch: 1000
next table: 1308
cur table: 1320
epoch: 1000
next table: 2511
cur table: 2545
epoch: 1000
next table: 1307
cur table: 1308
epoch: 1000
next table: 2519
cur table: 2511
epoch: 1000
next table: 1308
cur table: 1307
epoch: 1000
next table: 2513
cur table: 2519
epoch: 1000
next table: 1326
cur table: 1308
epoch: 1000
next table: 2542
cur table: 2513
epoch: 1000
next table: 1304
cur table: 1326
epoch: 1000
next table: 2515
cur table: 2542
epoch: 1000
next table: 1312
cur table: 1304
epoch: 1000
next table: 2518
cur table: 2515
epoch: 1000
next table: 1305
cur table: 1312
epoch: 1000
next table: 2513
cur table: 2518
epoch: 1000
next table: 1319
cur table: 1305
epoch: 1000
next table: 2542
cur table: 2513
epoch: 1000
next table: 1318
cur table: 1319
epoch: 1000
next table: 2511
cur table: 2542
epoch: 1000
next table: 1321
cur table: 1318
epoch: 1000
next table: 2517
cur table: 2511
epoch: 1000
next table: 1307
cur table: 1321
epoch: 1000
next table: 2515
cur table: 2517
epoch: 1000
next table: 1305
cur table: 1307
epoch: 1000
next table: 2539
cur table: 2515
epoch: 1000
next table: 1299
cur table: 1305
epoch: 1000
next table: 2513
cur table: 2539
epoch: 1000
next table: 1314
cur table: 1299
epoch: 1000
next table: 2518
cur table: 2513
epoch: 1000
next table: 1311
cur table: 1314
epoch: 1000
next table: 2514
cur table: 2518
epoch: 1000
next table: 1322
cur table: 1311
epoch: 1000
next table: 2542
cur table: 2514
epoch: 1000
next table: 1313
cur table: 1322
epoch: 1000
next table: 2513
cur table: 2542
epoch: 1000
next table: 1321
cur table: 1313
epoch: 1000
next table: 2520
cur table: 2513
epoch: 1000
next table: 1317
cur table: 1321
epoch: 1000
next table: 2513
cur table: 2520
epoch: 1000
next table: 1315
cur table: 1317
epoch: 1000
next table: 2543
cur table: 2513
epoch: 1000
next table: 1308
cur table: 1315
epoch: 1000
next table: 2512
cur table: 2543
epoch: 1000
next table: 1299
cur table: 1308
epoch: 1000
next table: 2519
cur table: 2512
epoch: 1000
next table: 1313
cur table: 1299
epoch: 1000
next table: 2511
cur table: 2519
epoch: 1000
next table: 1311
cur table: 1313
epoch: 1000
next table: 2549
cur table: 2511
epoch: 1000
next table: 1310
cur table: 1311
epoch: 1000
next table: 2510
cur table: 2549
epoch: 1000
next table: 1324
cur table: 1310
epoch: 1000
next table: 2520
cur table: 2510
epoch: 1000
next table: 1304
cur table: 1324
epoch: 1000
next table: 2514
cur table: 2520
epoch: 1000
next table: 1307
cur table: 1304
epoch: 1000
next table: 2543
cur table: 2514
epoch: 1000
next table: 1300
cur table: 1307
epoch: 1000
next table: 2513
cur table: 2543
epoch: 1000
next table: 1306
cur table: 1300
epoch: 1000
next table: 2519
cur table: 2513
epoch: 1000
next table: 1313
cur table: 1306
epoch: 1000
next table: 2512
cur table: 2519
epoch: 1000
next table: 1302
cur table: 1313
epoch: 1000
next table: 2543
cur table: 2512
epoch: 1000
next table: 1318
cur table: 1302
epoch: 1000
next table: 2514
cur table: 2543
epoch: 1000
next table: 1321
cur table: 1318
epoch: 1000
next table: 2518
cur table: 2514
epoch: 1000
next table: 1305
cur table: 1321
epoch: 1000
next table: 2512
cur table: 2518
epoch: 1000
next table: 1316
cur table: 1305
epoch: 1000
next table: 2542
cur table: 2512
epoch: 1000
next table: 1317
cur table: 1316
epoch: 1000
next table: 2511
cur table: 2542
epoch: 1000
next table: 1300
cur table: 1317
epoch: 1000
next table: 2521
cur table: 2511
epoch: 1000
next table: 1305
cur table: 1300
epoch: 1000
next table: 2511
cur table: 2521
epoch: 1000
next table: 1300
cur table: 1305
epoch: 1000
next table: 2542
cur table: 2511
epoch: 1000
next table: 1315
cur table: 1300
epoch: 1000
next table: 2512
cur table: 2542
epoch: 1000
next table: 1311
cur table: 1315
epoch: 1000
next table: 2518
cur table: 2512
epoch: 1000
next table: 1303
cur table: 1311
epoch: 1000
next table: 2512
cur table: 2518
epoch: 1000
next table: 1311
cur table: 1303
epoch: 1000
next table: 2545
cur table: 2512
epoch: 1000
next table: 1310
cur table: 1311
epoch: 1000
next table: 2513
cur table: 2545
epoch: 1000
next table: 1300
cur table: 1310
epoch: 1000
next table: 2517
cur table: 2513
epoch: 1000
next table: 1305
cur table: 1300
epoch: 1000
next table: 2513
cur table: 2517
epoch: 1000
next table: 1312
cur table: 1305
epoch: 1000
next table: 2539
cur table: 2513
epoch: 1000
next table: 1308
cur table: 1312
epoch: 1000
next table: 2511
cur table: 2539
epoch: 1000
next table: 1314
cur table: 1308
epoch: 1000
next table: 2520
cur table: 2511
epoch: 1000
next table: 1309
cur table: 1314
epoch: 1000
next table: 2514
cur table: 2520
epoch: 1000
next table: 1313
cur table: 1309
epoch: 1000
next table: 2540
cur table: 2514
epoch: 1000
next table: 1312
cur table: 1313
epoch: 1000
next table: 2512
cur table: 2540
epoch: 1000
next table: 1297
cur table: 1312
epoch: 1000
next table: 2518
cur table: 2512
epoch: 1000
next table: 1294
cur table: 1297
epoch: 1000
next table: 2512
cur table: 2518
epoch: 1000
next table: 1309
cur table: 1294
epoch: 1000
next table: 2542
cur table: 2512
epoch: 1000
next table: 1309
cur table: 1309
epoch: 1000
next table: 2515
cur table: 2542
epoch: 1000
next table: 1312
cur table: 1309
epoch: 1000
next table: 2517
cur table: 2515
epoch: 1000
next table: 1303
cur table: 1312
epoch: 1000
next table: 2514
cur table: 2517
epoch: 1000
next table: 1318
cur table: 1303
epoch: 1000
next table: 2546
cur table: 2514
epoch: 1000
next table: 1302
cur table: 1318
Heartbeat CPU 0 instructions: 20000002 cycles: 5826097 heartbeat IPC: 3.43287 cumulative IPC: 3.43283 (Simulation time: 0 hr 4 min 54 sec) 
epoch: 1000
next table: 2512
cur table: 2546
epoch: 1000
next table: 1320
cur table: 1302
epoch: 1000
next table: 2518
cur table: 2512
epoch: 1000
next table: 1308
cur table: 1320
epoch: 1000
next table: 2514
cur table: 2518
epoch: 1000
next table: 1312
cur table: 1308
epoch: 1000
next table: 2542
cur table: 2514
epoch: 1000
next table: 1299
cur table: 1312
epoch: 1000
next table: 2513
cur table: 2542
epoch: 1000
next table: 1311
cur table: 1299
epoch: 1000
next table: 2518
cur table: 2513
epoch: 1000
next table: 1308
cur table: 1311
epoch: 1000
next table: 2513
cur table: 2518
epoch: 1000
next table: 1318
cur table: 1308
epoch: 1000
next table: 2549
cur table: 2513
epoch: 1000
next table: 1316
cur table: 1318
epoch: 1000
next table: 2510
cur table: 2549
epoch: 1000
next table: 1315
cur table: 1316
epoch: 1000
next table: 2518
cur table: 2510
epoch: 1000
next table: 1313
cur table: 1315
epoch: 1000
next table: 2513
cur table: 2518
epoch: 1000
next table: 1316
cur table: 1313
epoch: 1000
next table: 2537
cur table: 2513
epoch: 1000
next table: 1306
cur table: 1316
epoch: 1000
next table: 2512
cur table: 2537
epoch: 1000
next table: 1308
cur table: 1306
epoch: 1000
next table: 2522
cur table: 2512
epoch: 1000
next table: 1306
cur table: 1308
epoch: 1000
next table: 2513
cur table: 2522
epoch: 1000
next table: 1308
cur table: 1306
epoch: 1000
next table: 2536
cur table: 2513
epoch: 1000
next table: 1308
cur table: 1308
epoch: 1000
next table: 2512
cur table: 2536
epoch: 1000
next table: 1304
cur table: 1308
epoch: 1000
next table: 2521
cur table: 2512
epoch: 1000
next table: 1301
cur table: 1304
epoch: 1000
next table: 2510
cur table: 2521
epoch: 1000
next table: 1297
cur table: 1301
epoch: 1000
next table: 2540
cur table: 2510
epoch: 1000
next table: 1294
cur table: 1297
epoch: 1000
next table: 2514
cur table: 2540
epoch: 1000
next table: 1308
cur table: 1294
epoch: 1000
next table: 2519
cur table: 2514
epoch: 1000
next table: 1314
cur table: 1308
epoch: 1000
next table: 2512
cur table: 2519
epoch: 1000
next table: 1312
cur table: 1314
epoch: 1000
next table: 2542
cur table: 2512
epoch: 1000
next table: 1308
cur table: 1312
epoch: 1000
next table: 2512
cur table: 2542
epoch: 1000
next table: 1306
cur table: 1308
epoch: 1000
next table: 2519
cur table: 2512
epoch: 1000
next table: 1304
cur table: 1306
epoch: 1000
next table: 2512
cur table: 2519
epoch: 1000
next table: 1308
cur table: 1304
epoch: 1000
next table: 2544
cur table: 2512
epoch: 1000
next table: 1304
cur table: 1308
epoch: 1000
next table: 2511
cur table: 2544
epoch: 1000
next table: 1305
cur table: 1304
epoch: 1000
next table: 2518
cur table: 2511
epoch: 1000
next table: 1318
cur table: 1305
epoch: 1000
next table: 2513
cur table: 2518
epoch: 1000
next table: 1317
cur table: 1318
epoch: 1000
next table: 2541
cur table: 2513
epoch: 1000
next table: 1308
cur table: 1317
epoch: 1000
next table: 2510
cur table: 2541
epoch: 1000
next table: 1305
cur table: 1308
epoch: 1000
next table: 2520
cur table: 2510
epoch: 1000
next table: 1303
cur table: 1305
epoch: 1000
next table: 2512
cur table: 2520
epoch: 1000
next table: 1302
cur table: 1303
epoch: 1000
next table: 2543
cur table: 2512
epoch: 1000
next table: 1320
cur table: 1302
epoch: 1000
next table: 2514
cur table: 2543
epoch: 1000
next table: 1306
cur table: 1320
epoch: 1000
next table: 2520
cur table: 2514
epoch: 1000
next table: 1312
cur table: 1306
epoch: 1000
next table: 2513
cur table: 2520
epoch: 1000
next table: 1313
cur table: 1312
epoch: 1000
next table: 2536
cur table: 2513
epoch: 1000
next table: 1303
cur table: 1313
epoch: 1000
next table: 2515
cur table: 2536
epoch: 1000
next table: 1301
cur table: 1303
epoch: 1000
next table: 2516
cur table: 2515
epoch: 1000
next table: 1301
cur table: 1301
epoch: 1000
next table: 2513
cur table: 2516
epoch: 1000
next table: 1314
cur table: 1301
epoch: 1000
next table: 2533
cur table: 2513
epoch: 1000
next table: 1321
cur table: 1314
epoch: 1000
next table: 2514
cur table: 2533
epoch: 1000
next table: 1308
cur table: 1321
epoch: 1000
next table: 2517
cur table: 2514
epoch: 1000
next table: 1307
cur table: 1308
epoch: 1000
next table: 2514
cur table: 2517
epoch: 1000
next table: 1306
cur table: 1307
epoch: 1000
next table: 2545
cur table: 2514
epoch: 1000
next table: 1307
cur table: 1306
epoch: 1000
next table: 2513
cur table: 2545
epoch: 1000
next table: 1304
cur table: 1307
epoch: 1000
next table: 2516
cur table: 2513
epoch: 1000
next table: 1310
cur table: 1304
epoch: 1000
next table: 2512
cur table: 2516
epoch: 1000
next table: 1303
cur table: 1310
epoch: 1000
next table: 2541
cur table: 2512
epoch: 1000
next table: 1311
cur table: 1303
epoch: 1000
next table: 2513
cur table: 2541
epoch: 1000
next table: 1317
cur table: 1311
epoch: 1000
next table: 2519
cur table: 2513
epoch: 1000
next table: 1312
cur table: 1317
epoch: 1000
next table: 2513
cur table: 2519
epoch: 1000
next table: 1310
cur table: 1312
epoch: 1000
next table: 2540
cur table: 2513
epoch: 1000
next table: 1308
cur table: 1310
epoch: 1000
next table: 2512
cur table: 2540
epoch: 1000
next table: 1306
cur table: 1308
epoch: 1000
next table: 2518
cur table: 2512
epoch: 1000
next table: 1303
cur table: 1306
epoch: 1000
next table: 2515
cur table: 2518
epoch: 1000
next table: 1311
cur table: 1303
epoch: 1000
next table: 2541
cur table: 2515
epoch: 1000
next table: 1320
cur table: 1311
epoch: 1000
next table: 2513
cur table: 2541
epoch: 1000
next table: 1322
cur table: 1320
epoch: 1000
next table: 2517
cur table: 2513
epoch: 1000
next table: 1307
cur table: 1322
epoch: 1000
next table: 2513
cur table: 2517
epoch: 1000
next table: 1307
cur table: 1307
epoch: 1000
next table: 2547
cur table: 2513
epoch: 1000
next table: 1308
cur table: 1307
epoch: 1000
next table: 2511
cur table: 2547
epoch: 1000
next table: 1300
cur table: 1308
epoch: 1000
next table: 2518
cur table: 2511
epoch: 1000
next table: 1302
cur table: 1300
epoch: 1000
next table: 2515
cur table: 2518
epoch: 1000
next table: 1297
cur table: 1302
epoch: 1000
next table: 2525
cur table: 2515
epoch: 1000
next table: 1337
cur table: 1297
epoch: 1000
next table: 2513
cur table: 2525
epoch: 1000
next table: 1318
cur table: 1337
epoch: 1000
next table: 2523
cur table: 2513
epoch: 1000
next table: 1310
cur table: 1318
epoch: 1000
next table: 2511
cur table: 2523
epoch: 1000
next table: 1320
cur table: 1310
epoch: 1000
next table: 2537
cur table: 2511
epoch: 1000
next table: 1306
cur table: 1320
epoch: 1000
next table: 2512
cur table: 2537
epoch: 1000
next table: 1298
cur table: 1306
epoch: 1000
next table: 2519
cur table: 2512
epoch: 1000
next table: 1306
cur table: 1298
epoch: 1000
next table: 2511
cur table: 2519
epoch: 1000
next table: 1314
cur table: 1306
epoch: 1000
next table: 2540
cur table: 2511
epoch: 1000
next table: 1302
cur table: 1314
epoch: 1000
next table: 2513
cur table: 2540
epoch: 1000
next table: 1314
cur table: 1302
epoch: 1000
next table: 2516
cur table: 2513
epoch: 1000
next table: 1310
cur table: 1314
epoch: 1000
next table: 2514
cur table: 2516
epoch: 1000
next table: 1317
cur table: 1310
epoch: 1000
next table: 2539
cur table: 2514
epoch: 1000
next table: 1312
cur table: 1317
epoch: 1000
next table: 2514
cur table: 2539
epoch: 1000
next table: 1301
cur table: 1312
epoch: 1000
next table: 2517
cur table: 2514
epoch: 1000
next table: 1307
cur table: 1301
epoch: 1000
next table: 2511
cur table: 2517
epoch: 1000
next table: 1313
cur table: 1307
epoch: 1000
next table: 2543
cur table: 2511
epoch: 1000
next table: 1307
cur table: 1313
epoch: 1000
next table: 2513
cur table: 2543
epoch: 1000
next table: 1320
cur table: 1307
epoch: 1000
next table: 2522
cur table: 2513
epoch: 1000
next table: 1316
cur table: 1320
epoch: 1000
next table: 2513
cur table: 2522
epoch: 1000
next table: 1318
cur table: 1316
epoch: 1000
next table: 2544
cur table: 2513
epoch: 1000
next table: 1312
cur table: 1318
Heartbeat CPU 0 instructions: 30000001 cycles: 8739046 heartbeat IPC: 3.43295 cumulative IPC: 3.43287 (Simulation time: 0 hr 7 min 18 sec) 
epoch: 1000
next table: 2510
cur table: 2544
epoch: 1000
next table: 1307
cur table: 1312
epoch: 1000
next table: 2516
cur table: 2510
epoch: 1000
next table: 1315
cur table: 1307
epoch: 1000
next table: 2515
cur table: 2516
epoch: 1000
next table: 1312
cur table: 1315
epoch: 1000
next table: 2544
cur table: 2515
epoch: 1000
next table: 1309
cur table: 1312
epoch: 1000
next table: 2513
cur table: 2544
epoch: 1000
next table: 1318
cur table: 1309
epoch: 1000
next table: 2518
cur table: 2513
epoch: 1000
next table: 1305
cur table: 1318
epoch: 1000
next table: 2512
cur table: 2518
epoch: 1000
next table: 1307
cur table: 1305
epoch: 1000
next table: 2546
cur table: 2512
epoch: 1000
next table: 1309
cur table: 1307
epoch: 1000
next table: 2513
cur table: 2546
epoch: 1000
next table: 1305
cur table: 1309
epoch: 1000
next table: 2519
cur table: 2513
epoch: 1000
next table: 1316
cur table: 1305
epoch: 1000
next table: 2511
cur table: 2519
epoch: 1000
next table: 1317
cur table: 1316
epoch: 1000
next table: 2544
cur table: 2511
epoch: 1000
next table: 1313
cur table: 1317
epoch: 1000
next table: 2511
cur table: 2544
epoch: 1000
next table: 1318
cur table: 1313
epoch: 1000
next table: 2520
cur table: 2511
epoch: 1000
next table: 1310
cur table: 1318
epoch: 1000
next table: 2514
cur table: 2520
epoch: 1000
next table: 1316
cur table: 1310
epoch: 1000
next table: 2543
cur table: 2514
epoch: 1000
next table: 1312
cur table: 1316
epoch: 1000
next table: 2514
cur table: 2543
epoch: 1000
next table: 1308
cur table: 1312
epoch: 1000
next table: 2519
cur table: 2514
epoch: 1000
next table: 1314
cur table: 1308
epoch: 1000
next table: 2512
cur table: 2519
epoch: 1000
next table: 1317
cur table: 1314
epoch: 1000
next table: 2542
cur table: 2512
epoch: 1000
next table: 1316
cur table: 1317
epoch: 1000
next table: 2511
cur table: 2542
epoch: 1000
next table: 1303
cur table: 1316
epoch: 1000
next table: 2517
cur table: 2511
epoch: 1000
next table: 1314
cur table: 1303
epoch: 1000
next table: 2513
cur table: 2517
epoch: 1000
next table: 1317
cur table: 1314
epoch: 1000
next table: 2543
cur table: 2513
epoch: 1000
next table: 1324
cur table: 1317
epoch: 1000
next table: 2513
cur table: 2543
epoch: 1000
next table: 1401
cur table: 1324
epoch: 1000
next table: 2520
cur table: 2513
epoch: 1000
next table: 1344
cur table: 1401
epoch: 1000
next table: 2511
cur table: 2520
epoch: 1000
next table: 1312
cur table: 1344
epoch: 1000
next table: 2539
cur table: 2511
epoch: 1000
next table: 1310
cur table: 1312
epoch: 1000
next table: 2512
cur table: 2539
epoch: 1000
next table: 1317
cur table: 1310
epoch: 1000
next table: 2520
cur table: 2512
epoch: 1000
next table: 1307
cur table: 1317
epoch: 1000
next table: 2513
cur table: 2520
epoch: 1000
next table: 1318
cur table: 1307
epoch: 1000
next table: 2546
cur table: 2513
epoch: 1000
next table: 1310
cur table: 1318
epoch: 1000
next table: 2512
cur table: 2546
epoch: 1000
next table: 1300
cur table: 1310
epoch: 1000
next table: 2518
cur table: 2512
epoch: 1000
next table: 1314
cur table: 1300
epoch: 1000
next table: 2513
cur table: 2518
epoch: 1000
next table: 1321
cur table: 1314
epoch: 1000
next table: 2542
cur table: 2513
epoch: 1000
next table: 1318
cur table: 1321
epoch: 1000
next table: 2512
cur table: 2542
epoch: 1000
next table: 1307
cur table: 1318
epoch: 1000
next table: 2519
cur table: 2512
epoch: 1000
next table: 1323
cur table: 1307
epoch: 1000
next table: 2513
cur table: 2519
epoch: 1000
next table: 1301
cur table: 1323
epoch: 1000
next table: 2541
cur table: 2513
epoch: 1000
next table: 1312
cur table: 1301
epoch: 1000
next table: 2512
cur table: 2541
epoch: 1000
next table: 1318
cur table: 1312
epoch: 1000
next table: 2519
cur table: 2512
epoch: 1000
next table: 1315
cur table: 1318
epoch: 1000
next table: 2513
cur table: 2519
epoch: 1000
next table: 1308
cur table: 1315
epoch: 1000
next table: 2546
cur table: 2513
epoch: 1000
next table: 1313
cur table: 1308
epoch: 1000
next table: 2509
cur table: 2546
epoch: 1000
next table: 1314
cur table: 1313
epoch: 1000
next table: 2517
cur table: 2509
epoch: 1000
next table: 1314
cur table: 1314
epoch: 1000
next table: 2513
cur table: 2517
epoch: 1000
next table: 1315
cur table: 1314
epoch: 1000
next table: 2546
cur table: 2513
epoch: 1000
next table: 1307
cur table: 1315
epoch: 1000
next table: 2511
cur table: 2546
epoch: 1000
next table: 1304
cur table: 1307
epoch: 1000
next table: 2519
cur table: 2511
epoch: 1000
next table: 1300
cur table: 1304
epoch: 1000
next table: 2513
cur table: 2519
epoch: 1000
next table: 1316
cur table: 1300
epoch: 1000
next table: 2537
cur table: 2513
epoch: 1000
next table: 1310
cur table: 1316
epoch: 1000
next table: 2513
cur table: 2537
epoch: 1000
next table: 1313
cur table: 1310
epoch: 1000
next table: 2521
cur table: 2513
epoch: 1000
next table: 1311
cur table: 1313
epoch: 1000
next table: 2511
cur table: 2521
epoch: 1000
next table: 1308
cur table: 1311
epoch: 1000
next table: 2540
cur table: 2511
epoch: 1000
next table: 1306
cur table: 1308
epoch: 1000
next table: 2511
cur table: 2540
epoch: 1000
next table: 1312
cur table: 1306
epoch: 1000
next table: 2520
cur table: 2511
epoch: 1000
next table: 1314
cur table: 1312
epoch: 1000
next table: 2512
cur table: 2520
epoch: 1000
next table: 1310
cur table: 1314
epoch: 1000
next table: 2544
cur table: 2512
epoch: 1000
next table: 1318
cur table: 1310
epoch: 1000
next table: 2512
cur table: 2544
epoch: 1000
next table: 1318
cur table: 1318
epoch: 1000
next table: 2519
cur table: 2512
epoch: 1000
next table: 1326
cur table: 1318
epoch: 1000
next table: 2511
cur table: 2519
epoch: 1000
next table: 1309
cur table: 1326
epoch: 1000
next table: 2542
cur table: 2511
epoch: 1000
next table: 1316
cur table: 1309
epoch: 1000
next table: 2513
cur table: 2542
epoch: 1000
next table: 1313
cur table: 1316
epoch: 1000
next table: 2511
cur table: 2513
epoch: 1000
next table: 1310
cur table: 1313
epoch: 1000
next table: 2520
cur table: 2511
epoch: 1000
next table: 1321
cur table: 1310
epoch: 1000
next table: 2512
cur table: 2520
epoch: 1000
next table: 1318
cur table: 1321
epoch: 1000
next table: 2543
cur table: 2512
epoch: 1000
next table: 1317
cur table: 1318
epoch: 1000
next table: 2514
cur table: 2543
epoch: 1000
next table: 1320
cur table: 1317
epoch: 1000
next table: 2521
cur table: 2514
epoch: 1000
next table: 1304
cur table: 1320
epoch: 1000
next table: 2512
cur table: 2521
epoch: 1000
next table: 1317
cur table: 1304
epoch: 1000
next table: 2540
cur table: 2512
epoch: 1000
next table: 1311
cur table: 1317
epoch: 1000
next table: 2513
cur table: 2540
epoch: 1000
next table: 1316
cur table: 1311
epoch: 1000
next table: 2520
cur table: 2513
epoch: 1000
next table: 1313
cur table: 1316
epoch: 1000
next table: 2510
cur table: 2520
epoch: 1000
next table: 1304
cur table: 1313
epoch: 1000
next table: 2543
cur table: 2510
epoch: 1000
next table: 1318
cur table: 1304
epoch: 1000
next table: 2512
cur table: 2543
epoch: 1000
next table: 1313
cur table: 1318
epoch: 1000
next table: 2520
cur table: 2512
epoch: 1000
next table: 1302
cur table: 1313
epoch: 1000
next table: 2512
cur table: 2520
epoch: 1000
next table: 1313
cur table: 1302
epoch: 1000
next table: 2548
cur table: 2512
epoch: 1000
next table: 1312
cur table: 1313
epoch: 1000
next table: 2510
cur table: 2548
epoch: 1000
next table: 1305
cur table: 1312
epoch: 1000
next table: 2519
cur table: 2510
epoch: 1000
next table: 1311
cur table: 1305
epoch: 1000
next table: 2515
cur table: 2519
epoch: 1000
next table: 1300
cur table: 1311
epoch: 1000
next table: 2533
cur table: 2515
epoch: 1000
next table: 1313
cur table: 1300
epoch: 1000
next table: 2514
cur table: 2533
epoch: 1000
next table: 1309
cur table: 1313
epoch: 1000
next table: 2519
cur table: 2514
epoch: 1000
next table: 1310
cur table: 1309
epoch: 1000
next table: 2512
cur table: 2519
epoch: 1000
next table: 1304
cur table: 1310
Heartbeat CPU 0 instructions: 40000003 cycles: 11651953 heartbeat IPC: 3.433 cumulative IPC: 3.4329 (Simulation time: 0 hr 9 min 47 sec) 
epoch: 1000
next table: 2543
cur table: 2512
epoch: 1000
next table: 1305
cur table: 1304
epoch: 1000
next table: 2512
cur table: 2543
epoch: 1000
next table: 1299
cur table: 1305
epoch: 1000
next table: 2520
cur table: 2512
epoch: 1000
next table: 1295
cur table: 1299
epoch: 1000
next table: 2511
cur table: 2520
epoch: 1000
next table: 1307
cur table: 1295
epoch: 1000
next table: 2544
cur table: 2511
epoch: 1000
next table: 1306
cur table: 1307
epoch: 1000
next table: 2513
cur table: 2544
epoch: 1000
next table: 1313
cur table: 1306
epoch: 1000
next table: 2517
cur table: 2513
epoch: 1000
next table: 1304
cur table: 1313
epoch: 1000
next table: 2513
cur table: 2517
epoch: 1000
next table: 1313
cur table: 1304
epoch: 1000
next table: 2545
cur table: 2513
epoch: 1000
next table: 1305
cur table: 1313
epoch: 1000
next table: 2512
cur table: 2545
epoch: 1000
next table: 1309
cur table: 1305
epoch: 1000
next table: 2517
cur table: 2512
epoch: 1000
next table: 1302
cur table: 1309
epoch: 1000
next table: 2514
cur table: 2517
epoch: 1000
next table: 1309
cur table: 1302
epoch: 1000
next table: 2538
cur table: 2514
epoch: 1000
next table: 1321
cur table: 1309
epoch: 1000
next table: 2513
cur table: 2538
epoch: 1000
next table: 1314
cur table: 1321
epoch: 1000
next table: 2520
cur table: 2513
epoch: 1000
next table: 1301
cur table: 1314
epoch: 1000
next table: 2513
cur table: 2520
epoch: 1000
next table: 1310
cur table: 1301
epoch: 1000
next table: 2541
cur table: 2513
epoch: 1000
next table: 1302
cur table: 1310
epoch: 1000
next table: 2515
cur table: 2541
epoch: 1000
next table: 1295
cur table: 1302
epoch: 1000
next table: 2517
cur table: 2515
epoch: 1000
next table: 1308
cur table: 1295
epoch: 1000
next table: 2513
cur table: 2517
epoch: 1000
next table: 1312
cur table: 1308
epoch: 1000
next table: 2543
cur table: 2513
epoch: 1000
next table: 1306
cur table: 1312
epoch: 1000
next table: 2511
cur table: 2543
epoch: 1000
next table: 1324
cur table: 1306
epoch: 1000
next table: 2520
cur table: 2511
epoch: 1000
next table: 1320
cur table: 1324
epoch: 1000
next table: 2512
cur table: 2520
epoch: 1000
next table: 1331
cur table: 1320
epoch: 1000
next table: 2542
cur table: 2512
epoch: 1000
next table: 1310
cur table: 1331
epoch: 1000
next table: 2513
cur table: 2542
epoch: 1000
next table: 1310
cur table: 1310
epoch: 1000
next table: 2520
cur table: 2513
epoch: 1000
next table: 1311
cur table: 1310
epoch: 1000
next table: 2512
cur table: 2520
epoch: 1000
next table: 1307
cur table: 1311
epoch: 1000
next table: 2536
cur table: 2512
epoch: 1000
next table: 1324
cur table: 1307
epoch: 1000
next table: 2513
cur table: 2536
epoch: 1000
next table: 1329
cur table: 1324
epoch: 1000
next table: 2520
cur table: 2513
epoch: 1000
next table: 1307
cur table: 1329
epoch: 1000
next table: 2513
cur table: 2520
epoch: 1000
next table: 1311
cur table: 1307
epoch: 1000
next table: 2538
cur table: 2513
epoch: 1000
next table: 1299
cur table: 1311
epoch: 1000
next table: 2514
cur table: 2538
epoch: 1000
next table: 1308
cur table: 1299
epoch: 1000
next table: 2520
cur table: 2514
epoch: 1000
next table: 1326
cur table: 1308
epoch: 1000
next table: 2513
cur table: 2520
epoch: 1000
next table: 1308
cur table: 1326
epoch: 1000
next table: 2539
cur table: 2513
epoch: 1000
next table: 1316
cur table: 1308
epoch: 1000
next table: 2514
cur table: 2539
epoch: 1000
next table: 1306
cur table: 1316
epoch: 1000
next table: 2518
cur table: 2514
epoch: 1000
next table: 1309
cur table: 1306
epoch: 1000
next table: 2513
cur table: 2518
epoch: 1000
next table: 1313
cur table: 1309
epoch: 1000
next table: 2537
cur table: 2513
epoch: 1000
next table: 1307
cur table: 1313
epoch: 1000
next table: 2513
cur table: 2537
epoch: 1000
next table: 1316
cur table: 1307
epoch: 1000
next table: 2520
cur table: 2513
epoch: 1000
next table: 1312
cur table: 1316
epoch: 1000
next table: 2512
cur table: 2520
epoch: 1000
next table: 1312
cur table: 1312
epoch: 1000
next table: 2542
cur table: 2512
epoch: 1000
next table: 1320
cur table: 1312
epoch: 1000
next table: 2512
cur table: 2542
epoch: 1000
next table: 1327
cur table: 1320
epoch: 1000
next table: 2518
cur table: 2512
epoch: 1000
next table: 1302
cur table: 1327
epoch: 1000
next table: 2514
cur table: 2518
epoch: 1000
next table: 1307
cur table: 1302
epoch: 1000
next table: 2538
cur table: 2514
epoch: 1000
next table: 1305
cur table: 1307
epoch: 1000
next table: 2512
cur table: 2538
epoch: 1000
next table: 1316
cur table: 1305
epoch: 1000
next table: 2520
cur table: 2512
epoch: 1000
next table: 1301
cur table: 1316
epoch: 1000
next table: 2514
cur table: 2520
epoch: 1000
next table: 1307
cur table: 1301
epoch: 1000
next table: 2539
cur table: 2514
epoch: 1000
next table: 1325
cur table: 1307
epoch: 1000
next table: 2512
cur table: 2539
epoch: 1000
next table: 1306
cur table: 1325
epoch: 1000
next table: 2521
cur table: 2512
epoch: 1000
next table: 1304
cur table: 1306
epoch: 1000
next table: 2514
cur table: 2521
epoch: 1000
next table: 1315
cur table: 1304
epoch: 1000
next table: 2540
cur table: 2514
epoch: 1000
next table: 1312
cur table: 1315
epoch: 1000
next table: 2510
cur table: 2540
epoch: 1000
next table: 1306
cur table: 1312
epoch: 1000
next table: 2521
cur table: 2510
epoch: 1000
next table: 1299
cur table: 1306
epoch: 1000
next table: 2512
cur table: 2521
epoch: 1000
next table: 1303
cur table: 1299
epoch: 1000
next table: 2537
cur table: 2512
epoch: 1000
next table: 1304
cur table: 1303
epoch: 1000
next table: 2514
cur table: 2537
epoch: 1000
next table: 1315
cur table: 1304
epoch: 1000
next table: 2518
cur table: 2514
epoch: 1000
next table: 1314
cur table: 1315
epoch: 1000
next table: 2512
cur table: 2518
epoch: 1000
next table: 1306
cur table: 1314
epoch: 1000
next table: 2542
cur table: 2512
epoch: 1000
next table: 1298
cur table: 1306
epoch: 1000
next table: 2514
cur table: 2542
epoch: 1000
next table: 1308
cur table: 1298
epoch: 1000
next table: 2522
cur table: 2514
epoch: 1000
next table: 1301
cur table: 1308
epoch: 1000
next table: 2513
cur table: 2522
epoch: 1000
next table: 1310
cur table: 1301
epoch: 1000
next table: 2539
cur table: 2513
epoch: 1000
next table: 1310
cur table: 1310
epoch: 1000
next table: 2515
cur table: 2539
epoch: 1000
next table: 1317
cur table: 1310
epoch: 1000
next table: 2517
cur table: 2515
epoch: 1000
next table: 1300
cur table: 1317
epoch: 1000
next table: 2511
cur table: 2517
epoch: 1000
next table: 1324
cur table: 1300
epoch: 1000
next table: 2544
cur table: 2511
epoch: 1000
next table: 1299
cur table: 1324
epoch: 1000
next table: 2512
cur table: 2544
epoch: 1000
next table: 1308
cur table: 1299
epoch: 1000
next table: 2519
cur table: 2512
epoch: 1000
next table: 1299
cur table: 1308
epoch: 1000
next table: 2513
cur table: 2519
epoch: 1000
next table: 1308
cur table: 1299
epoch: 1000
next table: 2542
cur table: 2513
epoch: 1000
next table: 1311
cur table: 1308
epoch: 1000
next table: 2512
cur table: 2542
epoch: 1000
next table: 1316
cur table: 1311
epoch: 1000
next table: 2518
cur table: 2512
epoch: 1000
next table: 1318
cur table: 1316
epoch: 1000
next table: 2513
cur table: 2518
epoch: 1000
next table: 1309
cur table: 1318
epoch: 1000
next table: 2545
cur table: 2513
epoch: 1000
next table: 1302
cur table: 1309
epoch: 1000
next table: 2512
cur table: 2545
epoch: 1000
next table: 1307
cur table: 1302
epoch: 1000
next table: 2517
cur table: 2512
epoch: 1000
next table: 1295
cur table: 1307
epoch: 1000
next table: 2513
cur table: 2517
epoch: 1000
next table: 1320
cur table: 1295
epoch: 1000
next table: 2525
cur table: 2513
epoch: 1000
next table: 1325
cur table: 1320
epoch: 1000
next table: 2513
cur table: 2525
epoch: 1000
next table: 1315
cur table: 1325
epoch: 1000
next table: 2521
cur table: 2513
epoch: 1000
next table: 1304
cur table: 1315
epoch: 1000
next table: 2512
cur table: 2521
epoch: 1000
next table: 1308
cur table: 1304
Heartbeat CPU 0 instructions: 50000001 cycles: 14565020 heartbeat IPC: 3.43281 cumulative IPC: 3.43288 (Simulation time: 0 hr 12 min 16 sec) 

Warmup complete CPU 0 instructions: 50000001 cycles: 14565020 (Simulation time: 0 hr 12 min 16 sec) 

epoch: 1000
next table: 2520
cur table: 2511
epoch: 1000
next table: 1297
cur table: 1286
epoch: 1000
next table: 2513
cur table: 2520
epoch: 1000
next table: 1292
cur table: 1297
epoch: 1000
next table: 1281
cur table: 1292
epoch: 1000
next table: 2537
cur table: 2513
epoch: 1000
next table: 1293
cur table: 1281
epoch: 1000
next table: 2515
cur table: 2537
epoch: 1000
next table: 1292
cur table: 1293
epoch: 1000
next table: 2519
cur table: 2515
epoch: 1000
next table: 1293
cur table: 1292
epoch: 1000
next table: 2514
cur table: 2519
epoch: 1000
next table: 1301
cur table: 1293
epoch: 1000
next table: 2539
cur table: 2514
epoch: 1000
next table: 1308
cur table: 1301
epoch: 1000
next table: 2513
cur table: 2539
epoch: 1000
next table: 1290
cur table: 1308
epoch: 1000
next table: 2518
cur table: 2513
epoch: 1000
next table: 1286
cur table: 1290
epoch: 1000
next table: 2513
cur table: 2518
epoch: 1000
next table: 1299
cur table: 1286
epoch: 1000
next table: 2544
cur table: 2513
epoch: 1000
next table: 1305
cur table: 1299
epoch: 1000
next table: 2513
cur table: 2544
epoch: 1000
next table: 1288
cur table: 1305
epoch: 1000
next table: 2520
cur table: 2513
epoch: 1000
next table: 1297
cur table: 1288
epoch: 1000
next table: 2511
cur table: 2520
epoch: 1000
next table: 1296
cur table: 1297
epoch: 1000
next table: 2541
cur table: 2511
epoch: 1000
next table: 1307
cur table: 1296
epoch: 1000
next table: 2515
cur table: 2541
epoch: 1000
next table: 1284
cur table: 1307
epoch: 1000
next table: 2515
cur table: 2515
epoch: 1000
next table: 1295
cur table: 1284
epoch: 1000
next table: 2513
cur table: 2515
epoch: 1000
next table: 1289
cur table: 1295
epoch: 1000
next table: 2539
cur table: 2513
epoch: 1000
next table: 1291
cur table: 1289
epoch: 1000
next table: 2513
cur table: 2539
epoch: 1000
next table: 1294
cur table: 1291
epoch: 1000
next table: 2516
cur table: 2513
epoch: 1000
next table: 1287
cur table: 1294
epoch: 1000
next table: 2518
cur table: 2516
epoch: 1000
next table: 1292
cur table: 1287
epoch: 1000
next table: 2510
cur table: 2518
epoch: 1000
next table: 1294
cur table: 1292
epoch: 1000
next table: 2542
cur table: 2510
epoch: 1000
next table: 1298
cur table: 1294
epoch: 1000
next table: 2515
cur table: 2542
epoch: 1000
next table: 1294
cur table: 1298
epoch: 1000
next table: 2516
cur table: 2515
epoch: 1000
next table: 1299
cur table: 1294
epoch: 1000
next table: 2516
cur table: 2516
epoch: 1000
next table: 1299
cur table: 1299
epoch: 1000
next table: 2540
cur table: 2516
epoch: 1000
next table: 1290
cur table: 1299
epoch: 1000
next table: 2513
cur table: 2540
epoch: 1000
next table: 1292
cur table: 1290
epoch: 1000
next table: 2518
cur table: 2513
epoch: 1000
next table: 1292
cur table: 1292
epoch: 1000
next table: 2512
cur table: 2518
epoch: 1000
next table: 1303
cur table: 1292
epoch: 1000
next table: 2544
cur table: 2512
epoch: 1000
next table: 1296
cur table: 1303
epoch: 1000
next table: 2513
cur table: 2544
epoch: 1000
next table: 1296
cur table: 1296
epoch: 1000
next table: 2516
cur table: 2513
epoch: 1000
next table: 1296
cur table: 1296
epoch: 1000
next table: 2513
cur table: 2516
epoch: 1000
next table: 1292
cur table: 1296
epoch: 1000
next table: 2538
cur table: 2513
epoch: 1000
next table: 1297
cur table: 1292
epoch: 1000
next table: 2513
cur table: 2538
epoch: 1000
next table: 1293
cur table: 1297
epoch: 1000
next table: 2519
cur table: 2513
epoch: 1000
next table: 1284
cur table: 1293
epoch: 1000
next table: 2515
cur table: 2519
epoch: 1000
next table: 1301
cur table: 1284
epoch: 1000
next table: 2539
cur table: 2515
epoch: 1000
next table: 1295
cur table: 1301
epoch: 1000
next table: 2513
cur table: 2539
epoch: 1000
next table: 1282
cur table: 1295
epoch: 1000
next table: 2518
cur table: 2513
epoch: 1000
next table: 1295
cur table: 1282
epoch: 1000
next table: 2512
cur table: 2518
epoch: 1000
next table: 1287
cur table: 1295
epoch: 1000
next table: 2539
cur table: 2512
epoch: 1000
next table: 1307
cur table: 1287
epoch: 1000
next table: 2515
cur table: 2539
epoch: 1000
next table: 1286
cur table: 1307
epoch: 1000
next table: 2518
cur table: 2515
epoch: 1000
next table: 1293
cur table: 1286
epoch: 1000
next table: 2513
cur table: 2518
epoch: 1000
next table: 1307
cur table: 1293
epoch: 1000
next table: 2543
cur table: 2513
epoch: 1000
next table: 1285
cur table: 1307
epoch: 1000
next table: 2513
cur table: 2543
epoch: 1000
next table: 1292
cur table: 1285
epoch: 1000
next table: 2517
cur table: 2513
epoch: 1000
next table: 1291
cur table: 1292
epoch: 1000
next table: 2514
cur table: 2517
epoch: 1000
next table: 1296
cur table: 1291
epoch: 1000
next table: 2540
cur table: 2514
epoch: 1000
next table: 1294
cur table: 1296
epoch: 1000
next table: 2513
cur table: 2540
epoch: 1000
next table: 1293
cur table: 1294
epoch: 1000
next table: 2518
cur table: 2513
epoch: 1000
next table: 1296
cur table: 1293
epoch: 1000
next table: 2515
cur table: 2518
epoch: 1000
next table: 1289
cur table: 1296
epoch: 1000
next table: 2544
cur table: 2515
epoch: 1000
next table: 1289
cur table: 1289
epoch: 1000
next table: 2510
cur table: 2544
epoch: 1000
next table: 1282
cur table: 1289
epoch: 1000
next table: 2515
cur table: 2510
epoch: 1000
next table: 1288
cur table: 1282
epoch: 1000
next table: 2513
cur table: 2515
epoch: 1000
next table: 1301
cur table: 1288
epoch: 1000
next table: 2543
cur table: 2513
epoch: 1000
next table: 1290
cur table: 1301
epoch: 1000
next table: 2511
cur table: 2543
epoch: 1000
next table: 1294
cur table: 1290
epoch: 1000
next table: 2518
cur table: 2511
epoch: 1000
next table: 1294
cur table: 1294
epoch: 1000
next table: 2513
cur table: 2518
epoch: 1000
next table: 1310
cur table: 1294
epoch: 1000
next table: 2544
cur table: 2513
epoch: 1000
next table: 1301
cur table: 1310
epoch: 1000
next table: 2510
cur table: 2544
epoch: 1000
next table: 1291
cur table: 1301
epoch: 1000
next table: 2520
cur table: 2510
epoch: 1000
next table: 1288
cur table: 1291
epoch: 1000
next table: 2512
cur table: 2520
epoch: 1000
next table: 1289
cur table: 1288
epoch: 1000
next table: 2541
cur table: 2512
epoch: 1000
next table: 1292
cur table: 1289
epoch: 1000
next table: 2512
cur table: 2541
epoch: 1000
next table: 1283
cur table: 1292
epoch: 1000
next table: 2518
cur table: 2512
epoch: 1000
next table: 1288
cur table: 1283
epoch: 1000
next table: 2513
cur table: 2518
epoch: 1000
next table: 1289
cur table: 1288
epoch: 1000
next table: 2539
cur table: 2513
epoch: 1000
next table: 1291
cur table: 1289
epoch: 1000
next table: 2512
cur table: 2539
epoch: 1000
next table: 1297
cur table: 1291
epoch: 1000
next table: 2521
cur table: 2512
epoch: 1000
next table: 1299
cur table: 1297
epoch: 1000
next table: 2510
cur table: 2521
epoch: 1000
next table: 1301
cur table: 1299
epoch: 1000
next table: 2545
cur table: 2510
epoch: 1000
next table: 1290
cur table: 1301
epoch: 1000
next table: 2512
cur table: 2545
epoch: 1000
next table: 1305
cur table: 1290
epoch: 1000
next table: 2517
cur table: 2512
epoch: 1000
next table: 1286
cur table: 1305
epoch: 1000
next table: 2513
cur table: 2517
epoch: 1000
next table: 1298
cur table: 1286
epoch: 1000
next table: 2539
cur table: 2513
epoch: 1000
next table: 1292
cur table: 1298
epoch: 1000
next table: 2513
cur table: 2539
epoch: 1000
next table: 1291
cur table: 1292
epoch: 1000
next table: 2518
cur table: 2513
epoch: 1000
next table: 1295
cur table: 1291
epoch: 1000
next table: 2512
cur table: 2518
epoch: 1000
next table: 1291
cur table: 1295
epoch: 1000
next table: 2543
cur table: 2512
epoch: 1000
next table: 1287
cur table: 1291
epoch: 1000
next table: 2513
cur table: 2543
epoch: 1000
next table: 1294
cur table: 1287
epoch: 1000
next table: 2520
cur table: 2513
epoch: 1000
next table: 1296
cur table: 1294
Heartbeat CPU 0 instructions: 60000000 cycles: 24549124 heartbeat IPC: 1.00159 cumulative IPC: 1.00159 (Simulation time: 0 hr 14 min 41 sec) 
epoch: 1000
next table: 2511
cur table: 2520
epoch: 1000
next table: 1288
cur table: 1296
epoch: 1000
next table: 2544
cur table: 2511
epoch: 1000
next table: 1284
cur table: 1288
epoch: 1000
next table: 2512
cur table: 2544
epoch: 1000
next table: 1284
cur table: 1284
epoch: 1000
next table: 2518
cur table: 2512
epoch: 1000
next table: 1289
cur table: 1284
epoch: 1000
next table: 2513
cur table: 2518
epoch: 1000
next table: 1304
cur table: 1289
epoch: 1000
next table: 2544
cur table: 2513
epoch: 1000
next table: 1288
cur table: 1304
epoch: 1000
next table: 2514
cur table: 2544
epoch: 1000
next table: 1287
cur table: 1288
epoch: 1000
next table: 2517
cur table: 2514
epoch: 1000
next table: 1299
cur table: 1287
epoch: 1000
next table: 2513
cur table: 2517
epoch: 1000
next table: 1297
cur table: 1299
epoch: 1000
next table: 2544
cur table: 2513
epoch: 1000
next table: 1285
cur table: 1297
epoch: 1000
next table: 2515
cur table: 2544
epoch: 1000
next table: 1289
cur table: 1285
epoch: 1000
next table: 2516
cur table: 2515
epoch: 1000
next table: 1290
cur table: 1289
epoch: 1000
next table: 2512
cur table: 2516
epoch: 1000
next table: 1282
cur table: 1290
epoch: 1000
next table: 2537
cur table: 2512
epoch: 1000
next table: 1286
cur table: 1282
epoch: 1000
next table: 2512
cur table: 2537
epoch: 1000
next table: 1287
cur table: 1286
epoch: 1000
next table: 2519
cur table: 2512
epoch: 1000
next table: 1290
cur table: 1287
epoch: 1000
next table: 2512
cur table: 2519
epoch: 1000
next table: 1293
cur table: 1290
epoch: 1000
next table: 2539
cur table: 2512
epoch: 1000
next table: 1296
cur table: 1293
epoch: 1000
next table: 2513
cur table: 2539
epoch: 1000
next table: 1286
cur table: 1296
epoch: 1000
next table: 2520
cur table: 2513
epoch: 1000
next table: 1301
cur table: 1286
epoch: 1000
next table: 2513
cur table: 2520
epoch: 1000
next table: 1290
cur table: 1301
epoch: 1000
next table: 2538
cur table: 2513
epoch: 1000
next table: 1293
cur table: 1290
epoch: 1000
next table: 2514
cur table: 2538
epoch: 1000
next table: 1288
cur table: 1293
epoch: 1000
next table: 2516
cur table: 2514
epoch: 1000
next table: 1293
cur table: 1288
epoch: 1000
next table: 2513
cur table: 2516
epoch: 1000
next table: 1293
cur table: 1293
epoch: 1000
next table: 2545
cur table: 2513
epoch: 1000
next table: 1297
cur table: 1293
epoch: 1000
next table: 2512
cur table: 2545
epoch: 1000
next table: 1286
cur table: 1297
epoch: 1000
next table: 2521
cur table: 2512
epoch: 1000
next table: 1298
cur table: 1286
epoch: 1000
next table: 2512
cur table: 2521
epoch: 1000
next table: 1299
cur table: 1298
epoch: 1000
next table: 2538
cur table: 2512
epoch: 1000
next table: 1297
cur table: 1299
epoch: 1000
next table: 2512
cur table: 2538
epoch: 1000
next table: 1294
cur table: 1297
epoch: 1000
next table: 2516
cur table: 2512
epoch: 1000
next table: 1289
cur table: 1294
epoch: 1000
next table: 2513
cur table: 2516
epoch: 1000
next table: 1293
cur table: 1289
epoch: 1000
next table: 2543
cur table: 2513
epoch: 1000
next table: 1289
cur table: 1293
epoch: 1000
next table: 2512
cur table: 2543
epoch: 1000
next table: 1299
cur table: 1289
epoch: 1000
next table: 2519
cur table: 2512
epoch: 1000
next table: 1296
cur table: 1299
epoch: 1000
next table: 2513
cur table: 2519
epoch: 1000
next table: 1295
cur table: 1296
epoch: 1000
next table: 2543
cur table: 2513
epoch: 1000
next table: 1292
cur table: 1295
epoch: 1000
next table: 2512
cur table: 2543
epoch: 1000
next table: 1291
cur table: 1292
epoch: 1000
next table: 2518
cur table: 2512
epoch: 1000
next table: 1292
cur table: 1291
epoch: 1000
next table: 2512
cur table: 2518
epoch: 1000
next table: 1287
cur table: 1292
epoch: 1000
next table: 2546
cur table: 2512
epoch: 1000
next table: 1292
cur table: 1287
epoch: 1000
next table: 2513
cur table: 2546
epoch: 1000
next table: 1290
cur table: 1292
epoch: 1000
next table: 2520
cur table: 2513
epoch: 1000
next table: 1290
cur table: 1290
epoch: 1000
next table: 2511
cur table: 2520
epoch: 1000
next table: 1282
cur table: 1290
epoch: 1000
next table: 2534
cur table: 2511
epoch: 1000
next table: 1297
cur table: 1282
epoch: 1000
next table: 2512
cur table: 2534
epoch: 1000
next table: 1286
cur table: 1297
epoch: 1000
next table: 2519
cur table: 2512
epoch: 1000
next table: 1282
cur table: 1286
epoch: 1000
next table: 2512
cur table: 2519
epoch: 1000
next table: 1292
cur table: 1282
epoch: 1000
next table: 2542
cur table: 2512
epoch: 1000
next table: 1290
cur table: 1292
epoch: 1000
next table: 2511
cur table: 2542
epoch: 1000
next table: 1290
cur table: 1290
epoch: 1000
next table: 2519
cur table: 2511
epoch: 1000
next table: 1288
cur table: 1290
epoch: 1000
next table: 2513
cur table: 2519
epoch: 1000
next table: 1292
cur table: 1288
epoch: 1000
next table: 2541
cur table: 2513
epoch: 1000
next table: 1293
cur table: 1292
epoch: 1000
next table: 2513
cur table: 2541
epoch: 1000
next table: 1284
cur table: 1293
epoch: 1000
next table: 2520
cur table: 2513
epoch: 1000
next table: 1288
cur table: 1284
epoch: 1000
next table: 2516
cur table: 2520
epoch: 1000
next table: 1292
cur table: 1288
epoch: 1000
next table: 2540
cur table: 2516
epoch: 1000
next table: 1309
cur table: 1292
epoch: 1000
next table: 2514
cur table: 2540
epoch: 1000
next table: 1287
cur table: 1309
epoch: 1000
next table: 2519
cur table: 2514
epoch: 1000
next table: 1290
cur table: 1287
epoch: 1000
next table: 2513
cur table: 2519
epoch: 1000
next table: 1285
cur table: 1290
epoch: 1000
next table: 2540
cur table: 2513
epoch: 1000
next table: 1286
cur table: 1285
epoch: 1000
next table: 2512
cur table: 2540
epoch: 1000
next table: 1296
cur table: 1286
epoch: 1000
next table: 2520
cur table: 2512
epoch: 1000
next table: 1284
cur table: 1296
epoch: 1000
next table: 2513
cur table: 2520
epoch: 1000
next table: 1298
cur table: 1284
epoch: 1000
next table: 2541
cur table: 2513
epoch: 1000
next table: 1297
cur table: 1298
epoch: 1000
next table: 2514
cur table: 2541
epoch: 1000
next table: 1294
cur table: 1297
epoch: 1000
next table: 2517
cur table: 2514
epoch: 1000
next table: 1281
cur table: 1294
epoch: 1000
next table: 2511
cur table: 2517
epoch: 1000
next table: 1300
cur table: 1281
epoch: 1000
next table: 2544
cur table: 2511
epoch: 1000
next table: 1297
cur table: 1300
epoch: 1000
next table: 2513
cur table: 2544
epoch: 1000
next table: 1291
cur table: 1297
epoch: 1000
next table: 2517
cur table: 2513
epoch: 1000
next table: 1286
cur table: 1291
epoch: 1000
next table: 2513
cur table: 2517
epoch: 1000
next table: 1295
cur table: 1286
epoch: 1000
next table: 2541
cur table: 2513
epoch: 1000
next table: 1296
cur table: 1295
epoch: 1000
next table: 2515
cur table: 2541
epoch: 1000
next table: 1297
cur table: 1296
epoch: 1000
next table: 2519
cur table: 2515
epoch: 1000
next table: 1300
cur table: 1297
epoch: 1000
next table: 2513
cur table: 2519
epoch: 1000
next table: 1293
cur table: 1300
epoch: 1000
next table: 2536
cur table: 2513
epoch: 1000
next table: 1282
cur table: 1293
epoch: 1000
next table: 2511
cur table: 2536
epoch: 1000
next table: 1293
cur table: 1282
epoch: 1000
next table: 2519
cur table: 2511
epoch: 1000
next table: 1300
cur table: 1293
epoch: 1000
next table: 2513
cur table: 2519
epoch: 1000
next table: 1294
cur table: 1300
epoch: 1000
next table: 2541
cur table: 2513
epoch: 1000
next table: 1281
cur table: 1294
epoch: 1000
next table: 2513
cur table: 2541
epoch: 1000
next table: 1293
cur table: 1281
epoch: 1000
next table: 2518
cur table: 2513
epoch: 1000
next table: 1301
cur table: 1293
epoch: 1000
next table: 2514
cur table: 2518
epoch: 1000
next table: 1288
cur table: 1301
epoch: 1000
next table: 2542
cur table: 2514
epoch: 1000
next table: 1290
cur table: 1288
epoch: 1000
next table: 2509
cur table: 2542
epoch: 1000
next table: 1297
cur table: 1290
epoch: 1000
next table: 2522
cur table: 2509
epoch: 1000
next table: 1285
cur table: 1297
Heartbeat CPU 0 instructions: 70000000 cycles: 34534085 heartbeat IPC: 1.00151 cumulative IPC: 1.00155 (Simulation time: 0 hr 16 min 52 sec) 
epoch: 1000
next table: 2513
cur table: 2522
epoch: 1000
next table: 1296
cur table: 1285
epoch: 1000
next table: 2542
cur table: 2513
epoch: 1000
next table: 1303
cur table: 1296
epoch: 1000
next table: 2515
cur table: 2542
epoch: 1000
next table: 1286
cur table: 1303
epoch: 1000
next table: 2520
cur table: 2515
epoch: 1000
next table: 1295
cur table: 1286
epoch: 1000
next table: 2511
cur table: 2520
epoch: 1000
next table: 1298
cur table: 1295
epoch: 1000
next table: 2539
cur table: 2511
epoch: 1000
next table: 1295
cur table: 1298
epoch: 1000
next table: 2512
cur table: 2539
epoch: 1000
next table: 1282
cur table: 1295
epoch: 1000
next table: 2520
cur table: 2512
epoch: 1000
next table: 1291
cur table: 1282
epoch: 1000
next table: 2512
cur table: 2520
epoch: 1000
next table: 1296
cur table: 1291
epoch: 1000
next table: 2542
cur table: 2512
epoch: 1000
next table: 1288
cur table: 1296
epoch: 1000
next table: 2512
cur table: 2542
epoch: 1000
next table: 1295
cur table: 1288
epoch: 1000
next table: 2519
cur table: 2512
epoch: 1000
next table: 1290
cur table: 1295
epoch: 1000
next table: 2512
cur table: 2519
epoch: 1000
next table: 1316
cur table: 1290
epoch: 1000
next table: 2531
cur table: 2512
epoch: 1000
next table: 1301
cur table: 1316
epoch: 1000
next table: 2510
cur table: 2531
epoch: 1000
next table: 1299
cur table: 1301
epoch: 1000
next table: 2520
cur table: 2510
epoch: 1000
next table: 1298
cur table: 1299
epoch: 1000
next table: 2510
cur table: 2520
epoch: 1000
next table: 1289
cur table: 1298
epoch: 1000
next table: 2547
cur table: 2510
epoch: 1000
next table: 1295
cur table: 1289
epoch: 1000
next table: 2514
cur table: 2547
epoch: 1000
next table: 1295
cur table: 1295
epoch: 1000
next table: 2518
cur table: 2514
epoch: 1000
next table: 1304
cur table: 1295
epoch: 1000
next table: 2514
cur table: 2518
epoch: 1000
next table: 1284
cur table: 1304
epoch: 1000
next table: 2539
cur table: 2514
epoch: 1000
next table: 1292
cur table: 1284
epoch: 1000
next table: 2513
cur table: 2539
epoch: 1000
next table: 1296
cur table: 1292
epoch: 1000
next table: 2518
cur table: 2513
epoch: 1000
next table: 1294
cur table: 1296
epoch: 1000
next table: 2512
cur table: 2518
epoch: 1000
next table: 1284
cur table: 1294
epoch: 1000
next table: 2546
cur table: 2512
epoch: 1000
next table: 1307
cur table: 1284
epoch: 1000
next table: 2511
cur table: 2546
epoch: 1000
next table: 1283
cur table: 1307
epoch: 1000
next table: 2518
cur table: 2511
epoch: 1000
next table: 1286
cur table: 1283
epoch: 1000
next table: 2512
cur table: 2518
epoch: 1000
next table: 1293
cur table: 1286
epoch: 1000
next table: 2545
cur table: 2512
epoch: 1000
next table: 1296
cur table: 1293
epoch: 1000
next table: 2513
cur table: 2545
epoch: 1000
next table: 1279
cur table: 1296
epoch: 1000
next table: 2515
cur table: 2513
epoch: 1000
next table: 1296
cur table: 1279
epoch: 1000
next table: 2514
cur table: 2515
epoch: 1000
next table: 1295
cur table: 1296
epoch: 1000
next table: 2538
cur table: 2514
epoch: 1000
next table: 1293
cur table: 1295
epoch: 1000
next table: 2513
cur table: 2538
epoch: 1000
next table: 1289
cur table: 1293
epoch: 1000
next table: 2522
cur table: 2513
epoch: 1000
next table: 1295
cur table: 1289
epoch: 1000
next table: 2512
cur table: 2522
epoch: 1000
next table: 1291
cur table: 1295
epoch: 1000
next table: 2543
cur table: 2512
epoch: 1000
next table: 1300
cur table: 1291
epoch: 1000
next table: 2513
cur table: 2543
epoch: 1000
next table: 1283
cur table: 1300
epoch: 1000
next table: 2517
cur table: 2513
epoch: 1000
next table: 1288
cur table: 1283
epoch: 1000
next table: 2515
cur table: 2517
epoch: 1000
next table: 1284
cur table: 1288
epoch: 1000
next table: 2542
cur table: 2515
epoch: 1000
next table: 1300
cur table: 1284
epoch: 1000
next table: 2512
cur table: 2542
epoch: 1000
next table: 1293
cur table: 1300
epoch: 1000
next table: 2518
cur table: 2512
epoch: 1000
next table: 1310
cur table: 1293
epoch: 1000
next table: 2511
cur table: 2518
epoch: 1000
next table: 1293
cur table: 1310
epoch: 1000
next table: 2540
cur table: 2511
epoch: 1000
next table: 1295
cur table: 1293
epoch: 1000
next table: 2513
cur table: 2540
epoch: 1000
next table: 1290
cur table: 1295
epoch: 1000
next table: 2518
cur table: 2513
epoch: 1000
next table: 1304
cur table: 1290
epoch: 1000
next table: 2513
cur table: 2518
epoch: 1000
next table: 1298
cur table: 1304
epoch: 1000
next table: 2541
cur table: 2513
epoch: 1000
next table: 1302
cur table: 1298
epoch: 1000
next table: 2513
cur table: 2541
epoch: 1000
next table: 1290
cur table: 1302
epoch: 1000
next table: 2522
cur table: 2513
epoch: 1000
next table: 1291
cur table: 1290
epoch: 1000
next table: 2512
cur table: 2522
epoch: 1000
next table: 1293
cur table: 1291
epoch: 1000
next table: 2535
cur table: 2512
epoch: 1000
next table: 1292
cur table: 1293
epoch: 1000
next table: 2514
cur table: 2535
epoch: 1000
next table: 1290
cur table: 1292
epoch: 1000
next table: 2520
cur table: 2514
epoch: 1000
next table: 1290
cur table: 1290
epoch: 1000
next table: 2512
cur table: 2520
epoch: 1000
next table: 1292
cur table: 1290
epoch: 1000
next table: 2543
cur table: 2512
epoch: 1000
next table: 1297
cur table: 1292
epoch: 1000
next table: 2510
cur table: 2543
epoch: 1000
next table: 1295
cur table: 1297
epoch: 1000
next table: 2519
cur table: 2510
epoch: 1000
next table: 1294
cur table: 1295
epoch: 1000
next table: 2512
cur table: 2519
epoch: 1000
next table: 1297
cur table: 1294
epoch: 1000
next table: 2538
cur table: 2512
epoch: 1000
next table: 1308
cur table: 1297
epoch: 1000
next table: 2512
cur table: 2538
epoch: 1000
next table: 1280
cur table: 1308
epoch: 1000
next table: 2520
cur table: 2512
epoch: 1000
next table: 1286
cur table: 1280
epoch: 1000
next table: 2513
cur table: 2520
epoch: 1000
next table: 1287
cur table: 1286
epoch: 1000
next table: 2544
cur table: 2513
epoch: 1000
next table: 1304
cur table: 1287
epoch: 1000
next table: 2512
cur table: 2544
epoch: 1000
next table: 1291
cur table: 1304
epoch: 1000
next table: 2518
cur table: 2512
epoch: 1000
next table: 1291
cur table: 1291
epoch: 1000
next table: 2514
cur table: 2518
epoch: 1000
next table: 1284
cur table: 1291
epoch: 1000
next table: 2545
cur table: 2514
epoch: 1000
next table: 1303
cur table: 1284
epoch: 1000
next table: 2512
cur table: 2545
epoch: 1000
next table: 1289
cur table: 1303
epoch: 1000
next table: 2518
cur table: 2512
epoch: 1000
next table: 1290
cur table: 1289
epoch: 1000
next table: 2511
cur table: 2518
epoch: 1000
next table: 1296
cur table: 1290
epoch: 1000
next table: 2542
cur table: 2511
epoch: 1000
next table: 1291
cur table: 1296
epoch: 1000
next table: 2512
cur table: 2542
epoch: 1000
next table: 1291
cur table: 1291
epoch: 1000
next table: 2522
cur table: 2512
epoch: 1000
next table: 1292
cur table: 1291
epoch: 1000
next table: 2511
cur table: 2522
epoch: 1000
next table: 1284
cur table: 1292
epoch: 1000
next table: 2540
cur table: 2511
epoch: 1000
next table: 1290
cur table: 1284
epoch: 1000
next table: 2513
cur table: 2540
epoch: 1000
next table: 1282
cur table: 1290
epoch: 1000
next table: 2518
cur table: 2513
epoch: 1000
next table: 1297
cur table: 1282
epoch: 1000
next table: 2512
cur table: 2518
epoch: 1000
next table: 1289
cur table: 1297
epoch: 1000
next table: 2545
cur table: 2512
epoch: 1000
next table: 1298
cur table: 1289
epoch: 1000
next table: 2513
cur table: 2545
epoch: 1000
next table: 1295
cur table: 1298
epoch: 1000
next table: 2518
cur table: 2513
epoch: 1000
next table: 1294
cur table: 1295
epoch: 1000
next table: 2514
cur table: 2518
epoch: 1000
next table: 1288
cur table: 1294
epoch: 1000
next table: 2539
cur table: 2514
epoch: 1000
next table: 1285
cur table: 1288
epoch: 1000
next table: 2513
cur table: 2539
epoch: 1000
next table: 1293
cur table: 1285
epoch: 1000
next table: 2520
cur table: 2513
epoch: 1000
next table: 1284
cur table: 1293
Heartbeat CPU 0 instructions: 80000002 cycles: 44519807 heartbeat IPC: 1.00143 cumulative IPC: 1.00151 (Simulation time: 0 hr 18 min 59 sec) 
epoch: 1000
next table: 2513
cur table: 2520
epoch: 1000
next table: 1289
cur table: 1284
epoch: 1000
next table: 2540
cur table: 2513
epoch: 1000
next table: 1297
cur table: 1289
epoch: 1000
next table: 2513
cur table: 2540
epoch: 1000
next table: 1290
cur table: 1297
epoch: 1000
next table: 2519
cur table: 2513
epoch: 1000
next table: 1294
cur table: 1290
epoch: 1000
next table: 2512
cur table: 2519
epoch: 1000
next table: 1294
cur table: 1294
epoch: 1000
next table: 2537
cur table: 2512
epoch: 1000
next table: 1288
cur table: 1294
epoch: 1000
next table: 2515
cur table: 2537
epoch: 1000
next table: 1293
cur table: 1288
epoch: 1000
next table: 2518
cur table: 2515
epoch: 1000
next table: 1295
cur table: 1293
epoch: 1000
next table: 2513
cur table: 2518
epoch: 1000
next table: 1291
cur table: 1295
epoch: 1000
next table: 2540
cur table: 2513
epoch: 1000
next table: 1300
cur table: 1291
epoch: 1000
next table: 2513
cur table: 2540
epoch: 1000
next table: 1298
cur table: 1300
epoch: 1000
next table: 2519
cur table: 2513
epoch: 1000
next table: 1294
cur table: 1298
epoch: 1000
next table: 2512
cur table: 2519
epoch: 1000
next table: 1289
cur table: 1294
epoch: 1000
next table: 2544
cur table: 2512
epoch: 1000
next table: 1292
cur table: 1289
epoch: 1000
next table: 2513
cur table: 2544
epoch: 1000
next table: 1288
cur table: 1292
epoch: 1000
next table: 2520
cur table: 2513
epoch: 1000
next table: 1297
cur table: 1288
epoch: 1000
next table: 2513
cur table: 2520
epoch: 1000
next table: 1299
cur table: 1297
epoch: 1000
next table: 2538
cur table: 2513
epoch: 1000
next table: 1289
cur table: 1299
epoch: 1000
next table: 2513
cur table: 2538
epoch: 1000
next table: 1295
cur table: 1289
epoch: 1000
next table: 2521
cur table: 2513
epoch: 1000
next table: 1289
cur table: 1295
epoch: 1000
next table: 2511
cur table: 2521
epoch: 1000
next table: 1294
cur table: 1289
epoch: 1000
next table: 2540
cur table: 2511
epoch: 1000
next table: 1286
cur table: 1294
epoch: 1000
next table: 2513
cur table: 2540
epoch: 1000
next table: 1291
cur table: 1286
epoch: 1000
next table: 2518
cur table: 2513
epoch: 1000
next table: 1291
cur table: 1291
epoch: 1000
next table: 2513
cur table: 2518
epoch: 1000
next table: 1287
cur table: 1291
epoch: 1000
next table: 2545
cur table: 2513
epoch: 1000
next table: 1295
cur table: 1287
epoch: 1000
next table: 2510
cur table: 2545
epoch: 1000
next table: 1310
cur table: 1295
epoch: 1000
next table: 2518
cur table: 2510
epoch: 1000
next table: 1304
cur table: 1310
epoch: 1000
next table: 2513
cur table: 2518
epoch: 1000
next table: 1286
cur table: 1304
epoch: 1000
next table: 2539
cur table: 2513
epoch: 1000
next table: 1292
cur table: 1286
epoch: 1000
next table: 2511
cur table: 2539
epoch: 1000
next table: 1294
cur table: 1292
epoch: 1000
next table: 2522
cur table: 2511
epoch: 1000
next table: 1291
cur table: 1294
epoch: 1000
next table: 2509
cur table: 2522
epoch: 1000
next table: 1295
cur table: 1291
epoch: 1000
next table: 2546
cur table: 2509
epoch: 1000
next table: 1292
cur table: 1295
epoch: 1000
next table: 2512
cur table: 2546
epoch: 1000
next table: 1292
cur table: 1292
epoch: 1000
next table: 2519
cur table: 2512
epoch: 1000
next table: 1302
cur table: 1292
epoch: 1000
next table: 2512
cur table: 2519
epoch: 1000
next table: 1294
cur table: 1302
epoch: 1000
next table: 2537
cur table: 2512
epoch: 1000
next table: 1285
cur table: 1294
epoch: 1000
next table: 2512
cur table: 2537
epoch: 1000
next table: 1286
cur table: 1285
epoch: 1000
next table: 2520
cur table: 2512
epoch: 1000
next table: 1295
cur table: 1286
epoch: 1000
next table: 2512
cur table: 2520
epoch: 1000
next table: 1294
cur table: 1295
epoch: 1000
next table: 2545
cur table: 2512
epoch: 1000
next table: 1291
cur table: 1294
epoch: 1000
next table: 2512
cur table: 2545
epoch: 1000
next table: 1289
cur table: 1291
epoch: 1000
next table: 2519
cur table: 2512
epoch: 1000
next table: 1298
cur table: 1289
epoch: 1000
next table: 2514
cur table: 2519
epoch: 1000
next table: 1295
cur table: 1298
epoch: 1000
next table: 2539
cur table: 2514
epoch: 1000
next table: 1303
cur table: 1295
epoch: 1000
next table: 2514
cur table: 2539
epoch: 1000
next table: 1285
cur table: 1303
epoch: 1000
next table: 2519
cur table: 2514
epoch: 1000
next table: 1287
cur table: 1285
epoch: 1000
next table: 2514
cur table: 2519
epoch: 1000
next table: 1288
cur table: 1287
epoch: 1000
next table: 2536
cur table: 2514
epoch: 1000
next table: 1304
cur table: 1288
epoch: 1000
next table: 2514
cur table: 2536
epoch: 1000
next table: 1307
cur table: 1304
epoch: 1000
next table: 2519
cur table: 2514
epoch: 1000
next table: 1322
cur table: 1307
epoch: 1000
next table: 2512
cur table: 2519
epoch: 1000
next table: 1309
cur table: 1322
epoch: 1000
next table: 2543
cur table: 2512
epoch: 1000
next table: 1295
cur table: 1309
epoch: 1000
next table: 2513
cur table: 2543
epoch: 1000
next table: 1288
cur table: 1295
epoch: 1000
next table: 2521
cur table: 2513
epoch: 1000
next table: 1291
cur table: 1288
epoch: 1000
next table: 2511
cur table: 2521
epoch: 1000
next table: 1282
cur table: 1291
epoch: 1000
next table: 2548
cur table: 2511
epoch: 1000
next table: 1298
cur table: 1282
epoch: 1000
next table: 2510
cur table: 2548
epoch: 1000
next table: 1302
cur table: 1298
epoch: 1000
next table: 2516
cur table: 2510
epoch: 1000
next table: 1305
cur table: 1302
epoch: 1000
next table: 2513
cur table: 2516
epoch: 1000
next table: 1289
cur table: 1305
epoch: 1000
next table: 2538
cur table: 2513
epoch: 1000
next table: 1285
cur table: 1289
epoch: 1000
next table: 2513
cur table: 2538
epoch: 1000
next table: 1284
cur table: 1285
epoch: 1000
next table: 2517
cur table: 2513
epoch: 1000
next table: 1289
cur table: 1284
epoch: 1000
next table: 2514
cur table: 2517
epoch: 1000
next table: 1301
cur table: 1289
epoch: 1000
next table: 2542
cur table: 2514
epoch: 1000
next table: 1297
cur table: 1301
epoch: 1000
next table: 2512
cur table: 2542
epoch: 1000
next table: 1289
cur table: 1297
epoch: 1000
next table: 2519
cur table: 2512
epoch: 1000
next table: 1301
cur table: 1289
epoch: 1000
next table: 2515
cur table: 2519
epoch: 1000
next table: 1291
cur table: 1301
epoch: 1000
next table: 2539
cur table: 2515
epoch: 1000
next table: 1293
cur table: 1291
epoch: 1000
next table: 2514
cur table: 2539
epoch: 1000
next table: 1288
cur table: 1293
epoch: 1000
next table: 2520
cur table: 2514
epoch: 1000
next table: 1294
cur table: 1288
epoch: 1000
next table: 2511
cur table: 2520
epoch: 1000
next table: 1288
cur table: 1294
epoch: 1000
next table: 2539
cur table: 2511
epoch: 1000
next table: 1286
cur table: 1288
epoch: 1000
next table: 2513
cur table: 2539
epoch: 1000
next table: 1295
cur table: 1286
epoch: 1000
next table: 2518
cur table: 2513
epoch: 1000
next table: 1288
cur table: 1295
epoch: 1000
next table: 2515
cur table: 2518
epoch: 1000
next table: 1286
cur table: 1288
epoch: 1000
next table: 2540
cur table: 2515
epoch: 1000
next table: 1296
cur table: 1286
epoch: 1000
next table: 2513
cur table: 2540
epoch: 1000
next table: 1288
cur table: 1296
epoch: 1000
next table: 2520
cur table: 2513
epoch: 1000
next table: 1299
cur table: 1288
epoch: 1000
next table: 2513
cur table: 2520
epoch: 1000
next table: 1291
cur table: 1299
epoch: 1000
next table: 2539
cur table: 2513
epoch: 1000
next table: 1293
cur table: 1291
epoch: 1000
next table: 2514
cur table: 2539
epoch: 1000
next table: 1286
cur table: 1293
epoch: 1000
next table: 2518
cur table: 2514
epoch: 1000
next table: 1297
cur table: 1286
epoch: 1000
next table: 2511
cur table: 2518
epoch: 1000
next table: 1302
cur table: 1297
epoch: 1000
next table: 2544
cur table: 2511
epoch: 1000
next table: 1291
cur table: 1302
epoch: 1000
next table: 2513
cur table: 2544
epoch: 1000
next table: 1290
cur table: 1291
epoch: 1000
next table: 2522
cur table: 2513
epoch: 1000
next table: 1287
cur table: 1290
Heartbeat CPU 0 instructions: 90000000 cycles: 54503629 heartbeat IPC: 1.00162 cumulative IPC: 1.00154 (Simulation time: 0 hr 21 min 7 sec) 
epoch: 1000
next table: 2512
cur table: 2522
epoch: 1000
next table: 1287
cur table: 1287
epoch: 1000
next table: 2544
cur table: 2512
epoch: 1000
next table: 1299
cur table: 1287
epoch: 1000
next table: 2512
cur table: 2544
epoch: 1000
next table: 1295
cur table: 1299
epoch: 1000
next table: 2514
cur table: 2512
epoch: 1000
next table: 1296
cur table: 1295
epoch: 1000
next table: 2517
cur table: 2514
epoch: 1000
next table: 1278
cur table: 1296
epoch: 1000
next table: 2513
cur table: 2517
epoch: 1000
next table: 1298
cur table: 1278
epoch: 1000
next table: 2538
cur table: 2513
epoch: 1000
next table: 1290
cur table: 1298
epoch: 1000
next table: 2513
cur table: 2538
epoch: 1000
next table: 1289
cur table: 1290
epoch: 1000
next table: 2521
cur table: 2513
epoch: 1000
next table: 1296
cur table: 1289
epoch: 1000
next table: 2512
cur table: 2521
epoch: 1000
next table: 1291
cur table: 1296
epoch: 1000
next table: 2546
cur table: 2512
epoch: 1000
next table: 1288
cur table: 1291
epoch: 1000
next table: 2513
cur table: 2546
epoch: 1000
next table: 1294
cur table: 1288
epoch: 1000
next table: 2516
cur table: 2513
epoch: 1000
next table: 1276
cur table: 1294
epoch: 1000
next table: 2513
cur table: 2516
epoch: 1000
next table: 1298
cur table: 1276
epoch: 1000
next table: 2540
cur table: 2513
epoch: 1000
next table: 1296
cur table: 1298
epoch: 1000
next table: 2512
cur table: 2540
epoch: 1000
next table: 1283
cur table: 1296
epoch: 1000
next table: 2518
cur table: 2512
epoch: 1000
next table: 1288
cur table: 1283
epoch: 1000
next table: 2513
cur table: 2518
epoch: 1000
next table: 1295
cur table: 1288
epoch: 1000
next table: 2544
cur table: 2513
epoch: 1000
next table: 1303
cur table: 1295
epoch: 1000
next table: 2512
cur table: 2544
epoch: 1000
next table: 1295
cur table: 1303
epoch: 1000
next table: 2519
cur table: 2512
epoch: 1000
next table: 1286
cur table: 1295
epoch: 1000
next table: 2511
cur table: 2519
epoch: 1000
next table: 1288
cur table: 1286
epoch: 1000
next table: 2545
cur table: 2511
epoch: 1000
next table: 1292
cur table: 1288
epoch: 1000
next table: 2510
cur table: 2545
epoch: 1000
next table: 1293
cur table: 1292
epoch: 1000
next table: 2521
cur table: 2510
epoch: 1000
next table: 1296
cur table: 1293
epoch: 1000
next table: 2512
cur table: 2521
epoch: 1000
next table: 1305
cur table: 1296
epoch: 1000
next table: 2538
cur table: 2512
epoch: 1000
next table: 1285
cur table: 1305
epoch: 1000
next table: 2512
cur table: 2538
epoch: 1000
next table: 1285
cur table: 1285
epoch: 1000
next table: 2520
cur table: 2512
epoch: 1000
next table: 1295
cur table: 1285
epoch: 1000
next table: 2515
cur table: 2520
epoch: 1000
next table: 1311
cur table: 1295
epoch: 1000
next table: 2524
cur table: 2515
epoch: 1000
next table: 1293
cur table: 1311
epoch: 1000
next table: 2515
cur table: 2524
epoch: 1000
next table: 1278
cur table: 1293
epoch: 1000
next table: 2519
cur table: 2515
epoch: 1000
next table: 1295
cur table: 1278
epoch: 1000
next table: 2511
cur table: 2519
epoch: 1000
next table: 1301
cur table: 1295
epoch: 1000
next table: 2545
cur table: 2511
epoch: 1000
next table: 1287
cur table: 1301
epoch: 1000
next table: 2510
cur table: 2545
epoch: 1000
next table: 1289
cur table: 1287
epoch: 1000
next table: 2518
cur table: 2510
epoch: 1000
next table: 1300
cur table: 1289
epoch: 1000
next table: 2510
cur table: 2518
epoch: 1000
next table: 1292
cur table: 1300
epoch: 1000
next table: 2543
cur table: 2510
epoch: 1000
next table: 1292
cur table: 1292
epoch: 1000
next table: 2512
cur table: 2543
epoch: 1000
next table: 1298
cur table: 1292
epoch: 1000
next table: 2518
cur table: 2512
epoch: 1000
next table: 1288
cur table: 1298
epoch: 1000
next table: 2512
cur table: 2518
epoch: 1000
next table: 1290
cur table: 1288
epoch: 1000
next table: 2546
cur table: 2512
epoch: 1000
next table: 1293
cur table: 1290
epoch: 1000
next table: 2510
cur table: 2546
epoch: 1000
next table: 1299
cur table: 1293
epoch: 1000
next table: 2519
cur table: 2510
epoch: 1000
next table: 1295
cur table: 1299
epoch: 1000
next table: 2513
cur table: 2519
epoch: 1000
next table: 1302
cur table: 1295
epoch: 1000
next table: 2544
cur table: 2513
epoch: 1000
next table: 1299
cur table: 1302
epoch: 1000
next table: 2514
cur table: 2544
epoch: 1000
next table: 1293
cur table: 1299
epoch: 1000
next table: 2519
cur table: 2514
epoch: 1000
next table: 1290
cur table: 1293
epoch: 1000
next table: 2512
cur table: 2519
epoch: 1000
next table: 1298
cur table: 1290
epoch: 1000
next table: 2543
cur table: 2512
epoch: 1000
next table: 1291
cur table: 1298
epoch: 1000
next table: 2512
cur table: 2543
epoch: 1000
next table: 1300
cur table: 1291
epoch: 1000
next table: 2518
cur table: 2512
epoch: 1000
next table: 1289
cur table: 1300
epoch: 1000
next table: 2514
cur table: 2518
epoch: 1000
next table: 1298
cur table: 1289
epoch: 1000
next table: 2541
cur table: 2514
epoch: 1000
next table: 1292
cur table: 1298
epoch: 1000
next table: 2513
cur table: 2541
epoch: 1000
next table: 1293
cur table: 1292
epoch: 1000
next table: 2517
cur table: 2513
epoch: 1000
next table: 1294
cur table: 1293
epoch: 1000
next table: 2513
cur table: 2517
epoch: 1000
next table: 1293
cur table: 1294
epoch: 1000
next table: 2546
cur table: 2513
epoch: 1000
next table: 1301
cur table: 1293
epoch: 1000
next table: 2513
cur table: 2546
epoch: 1000
next table: 1296
cur table: 1301
epoch: 1000
next table: 2519
cur table: 2513
epoch: 1000
next table: 1296
cur table: 1296
epoch: 1000
next table: 2511
cur table: 2519
epoch: 1000
next table: 1296
cur table: 1296
epoch: 1000
next table: 2541
cur table: 2511
epoch: 1000
next table: 1295
cur table: 1296
epoch: 1000
next table: 2513
cur table: 2541
epoch: 1000
next table: 1289
cur table: 1295
epoch: 1000
next table: 2520
cur table: 2513
epoch: 1000
next table: 1293
cur table: 1289
epoch: 1000
next table: 2514
cur table: 2520
epoch: 1000
next table: 1286
cur table: 1293
epoch: 1000
next table: 2541
cur table: 2514
epoch: 1000
next table: 1287
cur table: 1286
epoch: 1000
next table: 2513
cur table: 2541
epoch: 1000
next table: 1295
cur table: 1287
epoch: 1000
next table: 2517
cur table: 2513
epoch: 1000
next table: 1289
cur table: 1295
epoch: 1000
next table: 2512
cur table: 2517
epoch: 1000
next table: 1293
cur table: 1289
epoch: 1000
next table: 2536
cur table: 2512
epoch: 1000
next table: 1287
cur table: 1293
epoch: 1000
next table: 2515
cur table: 2536
epoch: 1000
next table: 1291
cur table: 1287
epoch: 1000
next table: 2517
cur table: 2515
epoch: 1000
next table: 1296
cur table: 1291
epoch: 1000
next table: 2513
cur table: 2517
epoch: 1000
next table: 1293
cur table: 1296
epoch: 1000
next table: 2540
cur table: 2513
epoch: 1000
next table: 1300
cur table: 1293
epoch: 1000
next table: 2513
cur table: 2540
epoch: 1000
next table: 1289
cur table: 1300
epoch: 1000
next table: 2519
cur table: 2513
epoch: 1000
next table: 1290
cur table: 1289
epoch: 1000
next table: 2513
cur table: 2519
epoch: 1000
next table: 1301
cur table: 1290
epoch: 1000
next table: 2541
cur table: 2513
epoch: 1000
next table: 1301
cur table: 1301
epoch: 1000
next table: 2511
cur table: 2541
epoch: 1000
next table: 1294
cur table: 1301
epoch: 1000
next table: 2519
cur table: 2511
epoch: 1000
next table: 1296
cur table: 1294
epoch: 1000
next table: 2513
cur table: 2519
epoch: 1000
next table: 1291
cur table: 1296
epoch: 1000
next table: 2545
cur table: 2513
epoch: 1000
next table: 1297
cur table: 1291
epoch: 1000
next table: 2512
cur table: 2545
epoch: 1000
next table: 1292
cur table: 1297
epoch: 1000
next table: 2519
cur table: 2512
epoch: 1000
next table: 1296
cur table: 1292
epoch: 1000
next table: 2511
cur table: 2519
epoch: 1000
next table: 1289
cur table: 1296
epoch: 1000
next table: 2541
cur table: 2511
epoch: 1000
next table: 1296
cur table: 1289
epoch: 1000
next table: 2512
cur table: 2541
epoch: 1000
next table: 1286
cur table: 1296
Heartbeat CPU 0 instructions: 100000000 cycles: 64490091 heartbeat IPC: 1.00136 cumulative IPC: 1.0015 (Simulation time: 0 hr 23 min 0 sec) 
Finished CPU 0 instructions: 50000003 cycles: 49925072 cumulative IPC: 1.0015 (Simulation time: 0 hr 23 min 0 sec) 

ChampSim completed all CPUs

Region of Interest Statistics

CPU 0 cumulative IPC: 1.0015 instructions: 50000003 cycles: 49925072
ITLB TOTAL     ACCESS:    7017829  HIT:    7017829  MISS:          0  HIT %:        100  MISS %:          0   MPKI: 0
ITLB LOAD TRANSLATION ACCESS:    7017829  HIT:    7017829  MISS:          0  HIT %:        100  MISS %:          0   MPKI: 0
ITLB PREFETCH  REQUESTED:          0  ISSUED:          0  USEFUL:          0  USELESS:          0
ITLB USEFUL LOAD PREFETCHES:          0 PREFETCH ISSUED TO LOWER LEVEL:          0  ACCURACY: -nan
ITLB TIMELY PREFETCHES:          0 LATE PREFETCHES: 0 DROPPED PREFETCHES: 0
ITLB PREFETCHES SAME FILL-ORIGIN LEVEL: 0 DIFFERENT FILL-ORIGIN LEVEL: 0
ITLB AVERAGE MISS LATENCY: -nan cycles
ITLB RQ	ACCESS:    8772896	FORWARD:          0	MERGED:    1755068	TO_CACHE:    7017828

Revised Interactions: positive negative neutral
ITLB_interactions 0 0 0 -nan -nan -nan
DTLB TOTAL     ACCESS:    7814048  HIT:    7802205  MISS:      11843  HIT %:    99.8484  MISS %:    0.15156   MPKI: 0.23686
DTLB LOAD TRANSLATION ACCESS:    7814048  HIT:    7802205  MISS:      11843  HIT %:    99.8484  MISS %:    0.15156   MPKI: 0.23686
DTLB PREFETCH  REQUESTED:          0  ISSUED:          0  USEFUL:          0  USELESS:          0
DTLB USEFUL LOAD PREFETCHES:          0 PREFETCH ISSUED TO LOWER LEVEL:          0  ACCURACY: -nan
DTLB TIMELY PREFETCHES:          0 LATE PREFETCHES: 0 DROPPED PREFETCHES: 0
DTLB PREFETCHES SAME FILL-ORIGIN LEVEL: 0 DIFFERENT FILL-ORIGIN LEVEL: 0
DTLB AVERAGE MISS LATENCY: 88.3476 cycles
DTLB RQ	ACCESS:   12265617	FORWARD:          0	MERGED:    4450773	TO_CACHE:    7814844

Revised Interactions: positive negative neutral
DTLB_interactions 0 0 0 -nan -nan -nan
STLB TOTAL     ACCESS:      11843  HIT:       4985  MISS:       6858  HIT %:    42.0924  MISS %:    57.9076   MPKI: 0.13716
STLB LOAD TRANSLATION ACCESS:      11843  HIT:       4985  MISS:       6858  HIT %:    42.0924  MISS %:    57.9076   MPKI: 0.13716
STLB PREFETCH  REQUESTED:          0  ISSUED:          0  USEFUL:          0  USELESS:          0
STLB USEFUL LOAD PREFETCHES:          0 PREFETCH ISSUED TO LOWER LEVEL:          0  ACCURACY: -nan
STLB TIMELY PREFETCHES:          0 LATE PREFETCHES: 0 DROPPED PREFETCHES: 0
STLB PREFETCHES SAME FILL-ORIGIN LEVEL: 0 DIFFERENT FILL-ORIGIN LEVEL: 0
STLB AVERAGE MISS LATENCY: 136.704 cycles
STLB RQ	ACCESS:      11843	FORWARD:          0	MERGED:          0	TO_CACHE:      11843

Revised Interactions: positive negative neutral
STLB_interactions 0 0 0 -nan -nan -nan
STLB Hit, L1D data hit: 0
STLB Hit, L2C data hit: 0
STLB Hit, LLC data hit: 0
STLB Hit, LLC data miss: 0
STLB STLB hints to L2: 0
L1D TOTAL     ACCESS:   12115560  HIT:   11453884  MISS:     661676  HIT %:    94.5386  MISS %:    5.46137   MPKI: 13.2335
L1D LOAD      ACCESS:    8606689  HIT:    7945776  MISS:     660913  HIT %:    92.3209  MISS %:    7.67906   MPKI: 13.2183
L1D RFO       ACCESS:    3508871  HIT:    3508108  MISS:        763  HIT %:    99.9783  MISS %:  0.0217449   MPKI: 0.01526
L1D PREFETCH  REQUESTED:          0  ISSUED:          0  USEFUL:          0  USELESS:          0
L1D USEFUL LOAD PREFETCHES:          0 PREFETCH ISSUED TO LOWER LEVEL:          0  ACCURACY: -nan
L1D TIMELY PREFETCHES:          0 LATE PREFETCHES: 0 DROPPED PREFETCHES: 0
L1D PREFETCHES SAME FILL-ORIGIN LEVEL: 0 DIFFERENT FILL-ORIGIN LEVEL: 0
L1D AVERAGE MISS LATENCY: 24.4102 cycles
L1D RQ	ACCESS:   17541468	FORWARD:          0	MERGED:    8786011	TO_CACHE:    8755349
L1D WQ	ACCESS:    3510268	FORWARD:        108	MERGED:          0	TO_CACHE:    3510268

Revised Interactions: positive negative neutral
L1D_interactions 0 0 0 -nan -nan -nan
L1D UNIQUE REGIONS ACCESSED: 0
L1D REGIONS CONFLICTS: 0
L1D Cross Page Prefetch Requests: 0
L1D Same Page Prefetch Requests: 0
L1D ROI Sum of L1D PQ occupancy: 0
L1D PREFETCHES PUSHED FROM L2C: 0
L1I TOTAL     ACCESS:    8772896  HIT:    8772896  MISS:          0  HIT %:        100  MISS %:          0   MPKI: 0
L1I LOAD      ACCESS:    8772896  HIT:    8772896  MISS:          0  HIT %:        100  MISS %:          0   MPKI: 0
L1I PREFETCH  REQUESTED:          0  ISSUED:          0  USEFUL:          0  USELESS:          0
L1I USEFUL LOAD PREFETCHES:          0 PREFETCH ISSUED TO LOWER LEVEL:          0  ACCURACY: -nan
L1I TIMELY PREFETCHES:          0 LATE PREFETCHES: 0 DROPPED PREFETCHES: 0
L1I PREFETCHES SAME FILL-ORIGIN LEVEL: 0 DIFFERENT FILL-ORIGIN LEVEL: 0
L1I AVERAGE MISS LATENCY: -nan cycles
L1I RQ	ACCESS:   11407701	FORWARD:          0	MERGED:    2634805	TO_CACHE:    8772896

Revised Interactions: positive negative neutral
L1I_interactions 0 0 0 -nan -nan -nan
BTB TOTAL     ACCESS:     877293  HIT:     877284  MISS:          9  HIT %:     99.999  MISS %: 0.00102588   MPKI: 0.00018
BTB BRANCH_DIRECT_JUMP	ACCESS:        218  HIT:        216  MISS:          2
BTB BRANCH_INDIRECT	ACCESS:          0  HIT:          0  MISS:          0
BTB BRANCH_CONDITIONAL	ACCESS:     876639  HIT:     876636  MISS:          3
BTB BRANCH_DIRECT_CALL	ACCESS:        218  HIT:        216  MISS:          2
BTB BRANCH_INDIRECT_CALL	ACCESS:          0  HIT:          0  MISS:          0
BTB BRANCH_RETURN	ACCESS:        218  HIT:        216  MISS:          2
BTB BRANCH_OTHER ACCESS:          0  HIT:          0  MISS:          0

L2C TOTAL     ACCESS:    3430254  HIT:    2990562  MISS:     439692  HIT %:    87.1819  MISS %:    12.8181   MPKI: 8.79384
L2C LOAD      ACCESS:     660913  HIT:     527330  MISS:     133583  HIT %:    79.7881  MISS %:    20.2119   MPKI: 2.67166
L2C DATA LOAD MPKI: 2.67166
L2C INSTRUCTION LOAD MPKI: 0
L2C RFO       ACCESS:        763  HIT:        762  MISS:          1  HIT %:    99.8689  MISS %:   0.131062   MPKI: 2e-05
L2C PREFETCH  ACCESS:    2322480  HIT:    2017470  MISS:     305010  HIT %:    86.8671  MISS %:    13.1329   MPKI: 6.1002
L2C DATA PREFETCH MPKI: 6.1002
L2C INSTRUCTION PREFETCH MPKI: 0
L2C WRITEBACK ACCESS:     439238  HIT:     439026  MISS:        212  HIT %:    99.9517  MISS %:  0.0482654   MPKI: 0.00424
L2C LOAD TRANSLATION ACCESS:       6860  HIT:       5974  MISS:        886  HIT %:    87.0845  MISS %:    12.9155   MPKI: 0.01772
L2C PREFETCH  REQUESTED:    6761580  ISSUED:    6469320  USEFUL:     304912  USELESS:         97
L2C USEFUL LOAD PREFETCHES:     304912 PREFETCH ISSUED TO LOWER LEVEL:    4435728  ACCURACY: 6.874
L2C TIMELY PREFETCHES:     304912 LATE PREFETCHES: 5518 DROPPED PREFETCHES: 0
L2C PREFETCHES SAME FILL-ORIGIN LEVEL: 310528 DIFFERENT FILL-ORIGIN LEVEL: 4125200
L2C AVERAGE MISS LATENCY: 36.8183 cycles
L2C RQ	ACCESS:     668536	FORWARD:          0	MERGED:          0	TO_CACHE:     668536
L2C WQ	ACCESS:     439238	FORWARD:          0	MERGED:          0	TO_CACHE:     439238
L2C PQ	ACCESS:    6469320	FORWARD:          0	MERGED:      15787	TO_CACHE:    6453533

Revised Interactions: positive negative neutral
L2C_interactions 303707 261 32 99.9036 0.0858553 0.0105263
L2C Instructions Evicting Data 0
L2C Translations Evicting Data 885
L2C Data Evicting Data 437699
L2C Instructions Evicting Instructions 0
L2C Translations Evicting Instructions 0
L2C Data Evicting Instructions 0
L2C Instructions Evicting Translations 0
L2C Translations Evicting Translations 1
L2C Data Evicting Translations 895
L2C Dense regions hint from L2: 0
PSCL5 TOTAL     ACCESS:       6858  HIT:       6858  MISS:          0  HIT %:        100  MISS %:          0   MPKI: 0
PSCL5 LOAD TRANSLATION ACCESS:       6858  HIT:       6858  MISS:          0  HIT %:        100  MISS %:          0   MPKI: 0
PSCL5 PREFETCH  REQUESTED:          0  ISSUED:          0  USEFUL:          0  USELESS:          0
PSCL5 USEFUL LOAD PREFETCHES:          0 PREFETCH ISSUED TO LOWER LEVEL:          0  ACCURACY: -nan
PSCL5 TIMELY PREFETCHES:          0 LATE PREFETCHES: 0 DROPPED PREFETCHES: 0
PSCL5 PREFETCHES SAME FILL-ORIGIN LEVEL: 0 DIFFERENT FILL-ORIGIN LEVEL: 0

Revised Interactions: positive negative neutral
PSCL5_interactions 0 0 0 -nan -nan -nan
PSCL4 TOTAL     ACCESS:       6858  HIT:       6858  MISS:          0  HIT %:        100  MISS %:          0   MPKI: 0
PSCL4 LOAD TRANSLATION ACCESS:       6858  HIT:       6858  MISS:          0  HIT %:        100  MISS %:          0   MPKI: 0
PSCL4 PREFETCH  REQUESTED:          0  ISSUED:          0  USEFUL:          0  USELESS:          0
PSCL4 USEFUL LOAD PREFETCHES:          0 PREFETCH ISSUED TO LOWER LEVEL:          0  ACCURACY: -nan
PSCL4 TIMELY PREFETCHES:          0 LATE PREFETCHES: 0 DROPPED PREFETCHES: 0
PSCL4 PREFETCHES SAME FILL-ORIGIN LEVEL: 0 DIFFERENT FILL-ORIGIN LEVEL: 0

Revised Interactions: positive negative neutral
PSCL4_interactions 0 0 0 -nan -nan -nan
PSCL3 TOTAL     ACCESS:       6858  HIT:       6856  MISS:          2  HIT %:    99.9708  MISS %:   0.029163   MPKI: 4e-05
PSCL3 LOAD TRANSLATION ACCESS:       6858  HIT:       6856  MISS:          2  HIT %:    99.9708  MISS %:   0.029163   MPKI: 4e-05
PSCL3 PREFETCH  REQUESTED:          0  ISSUED:          0  USEFUL:          0  USELESS:          0
PSCL3 USEFUL LOAD PREFETCHES:          0 PREFETCH ISSUED TO LOWER LEVEL:          0  ACCURACY: -nan
PSCL3 TIMELY PREFETCHES:          0 LATE PREFETCHES: 0 DROPPED PREFETCHES: 0
PSCL3 PREFETCHES SAME FILL-ORIGIN LEVEL: 0 DIFFERENT FILL-ORIGIN LEVEL: 0

Revised Interactions: positive negative neutral
PSCL3_interactions 0 0 0 -nan -nan -nan
PSCL2 TOTAL     ACCESS:       6858  HIT:       6837  MISS:         21  HIT %:    99.6938  MISS %:   0.306212   MPKI: 0.00042
PSCL2 LOAD TRANSLATION ACCESS:       6858  HIT:       6837  MISS:         21  HIT %:    99.6938  MISS %:   0.306212   MPKI: 0.00042
PSCL2 PREFETCH  REQUESTED:          0  ISSUED:          0  USEFUL:          0  USELESS:          0
PSCL2 USEFUL LOAD PREFETCHES:          0 PREFETCH ISSUED TO LOWER LEVEL:          0  ACCURACY: -nan
PSCL2 TIMELY PREFETCHES:          0 LATE PREFETCHES: 0 DROPPED PREFETCHES: 0
PSCL2 PREFETCHES SAME FILL-ORIGIN LEVEL: 0 DIFFERENT FILL-ORIGIN LEVEL: 0

Revised Interactions: positive negative neutral
PSCL2_interactions 0 0 0 -nan -nan -nan
LLC TOTAL     ACCESS:    4747926  HIT:    4307294  MISS:     440632  HIT %:    90.7195  MISS %:    9.28052   MPKI: 8.81264
LLC LOAD      ACCESS:     128065  HIT:     115844  MISS:      12221  HIT %:    90.4572  MISS %:    9.54281   MPKI: 0.24442
LLC RFO       ACCESS:          1  HIT:          1  MISS:          0  HIT %:        100  MISS %:          0   MPKI: 0
LLC PREFETCH  ACCESS:    4180731  HIT:    3753618  MISS:     427113  HIT %:    89.7838  MISS %:    10.2162   MPKI: 8.54226
LLC WRITEBACK ACCESS:     438243  HIT:     437826  MISS:        417  HIT %:    99.9048  MISS %:  0.0951527   MPKI: 0.00834
LLC LOAD TRANSLATION ACCESS:        886  HIT:          5  MISS:        881  HIT %:   0.564334  MISS %:    99.4357   MPKI: 0.01762
LLC PREFETCH  REQUESTED:          0  ISSUED:          0  USEFUL:     115824  USELESS:     310775
LLC USEFUL LOAD PREFETCHES:     115824 PREFETCH ISSUED TO LOWER LEVEL:     428281  ACCURACY: 27.0439
LLC TIMELY PREFETCHES:     115824 LATE PREFETCHES: 1163 DROPPED PREFETCHES: 0
LLC PREFETCHES SAME FILL-ORIGIN LEVEL: 423269 DIFFERENT FILL-ORIGIN LEVEL: 0
LLC AVERAGE MISS LATENCY: 169.538 cycles
LLC RQ	ACCESS:     128952	FORWARD:          0	MERGED:          0	TO_CACHE:     128952
LLC WQ	ACCESS:     438244	FORWARD:          0	MERGED:          0	TO_CACHE:     438244
LLC PQ	ACCESS:    4435728	FORWARD:          0	MERGED:       1781	TO_CACHE:    4433947

Revised Interactions: positive negative neutral
LLC_interactions 114414 311522 4302 26.5932 72.4069 0.999912
LLC Dense regions hint to LLC: 0

RAW hits: 788
Loads Generated: 17542256
Loads sent to L1D: 17541468
Stores Generated: 3510262
Stores sent to L1D: 3510268
Major fault: 0 Minor fault: 13844
Allocated PAGES: 13844
 All Calls: 1321853
 Critical Calls: 1321853
------------------
Depth Distribution
------------------
depth 0: 0
depth 1: 1287439
depth 2: 1264435
depth 3: 1241289
depth 4: 1213025
depth 5: 1176559
depth 6: 1139555
depth 7: 1090562
depth 8: 1037282
depth 9: 869006
depth 10: 816932
depth 11: 659659
depth 12: 509528
depth 13: 280927
depth 14: 81258
depth 15: 78089
depth 16: 84
depth 17: 0
depth 18: 0
depth 19: 0
depth 20: 0
depth 21: 0
depth 22: 0
depth 23: 0
depth 24: 0
depth 25: 0
depth 26: 0
depth 27: 0
depth 28: 0
depth 29: 0
Total: 12745629
-----------------------------
-----------------------------
	Captured at Filter
-----------------------------
depth 0: 0
depth 1: 11069
depth 2: 10723
depth 3: 10796
depth 4: 10460
depth 5: 10574
depth 6: 10166
depth 7: 10007
depth 8: 9868
depth 9: 8552
depth 10: 8159
depth 11: 6967
depth 12: 5541
depth 13: 3150
depth 14: 932
depth 15: 897
depth 16: 0
depth 17: 0
depth 18: 0
depth 19: 0
depth 20: 0
depth 21: 0
depth 22: 0
depth 23: 0
depth 24: 0
depth 25: 0
depth 26: 0
depth 27: 0
depth 28: 0
depth 29: 0
-----------------------------
-----------------------------
		Lost at Page
-----------------------------
depth 0: 0
depth 1: 20512
depth 2: 40982
depth 3: 61465
depth 4: 81947
depth 5: 102428
depth 6: 122828
depth 7: 142796
depth 8: 162179
depth 9: 158798
depth 10: 174581
depth 11: 164439
depth 12: 147145
depth 13: 93343
depth 14: 30403
depth 15: 32596
depth 16: 26
depth 17: 0
depth 18: 0
depth 19: 0
depth 20: 0
depth 21: 0
depth 22: 0
depth 23: 0
depth 24: 0
depth 25: 0
depth 26: 0
depth 27: 0
depth 28: 0
depth 29: 0
-----------------------------
-----------------------------
	Lost due to PQ Size
-----------------------------
781699
-----------------------------
ST read accesses: 654090
ST write accesses: 6823
PT read accesses: 41258193
PT write accesses: 979086
FILTER read accesses: 7922266
FILTER write accesses: 1382596
GHR read accesses: 5074755
GHR write accesses: 769336
GHR counter read accesses: 34328690
GHR counter write accesses: 1604339
ST tag read accesses: 246852712
ST tag write accesses: 3372354

DRAM Statistics
 CHANNEL 0
 RQ ROW_BUFFER_HIT:      46641  ROW_BUFFER_MISS:     393574
 DBUS_CONGESTED:         45
 WQ ROW_BUFFER_HIT:      77602  ROW_BUFFER_MISS:     360677  FULL:          0

 AVG_CONGESTED_CYCLE: 3
 All warmup complete: 2
Channel 0 Bank busy for read cycles: 0
Channel 0 Bank busy for write cycles: 0
Channel 0
Rank 0
0banks busy for read cycles: 12703046
0banks busy for write cycles: 51141
1banks busy for read cycles: 5480364
1banks busy for write cycles: 1238278
2banks busy for read cycles: 8446629
2banks busy for write cycles: 1205548
3banks busy for read cycles: 6158003
3banks busy for write cycles: 2466610
4banks busy for read cycles: 972774
4banks busy for write cycles: 678093
5banks busy for read cycles: 1329055
5banks busy for write cycles: 2349582
6banks busy for read cycles: 208038
6banks busy for write cycles: 818085
7banks busy for read cycles: 157838
7banks busy for write cycles: 714764
8banks busy for read cycles: 953974
8banks busy for write cycles: 3993251

CPU 0 Branch Prediction Accuracy: 99.9751% MPKI: 0.00438 Average ROB Occupancy at Mispredict: 71.5571
Branch types
NOT_BRANCH: 49121848 98.2437%
BRANCH_DIRECT_JUMP: 218 0.000436%
BRANCH_INDIRECT: 0 0%
BRANCH_CONDITIONAL: 877403 1.75481%
BRANCH_DIRECT_CALL: 218 0.000436%
BRANCH_INDIRECT_CALL: 0 0%
BRANCH_RETURN: 218 0.000436%
BRANCH_OTHER: 0 0%

@sumon_overall_L1D         0         0         0         0         0         0         0
@Sumon_Early_by_class_L1D         0         0         0         0
@Sumon_Late_by_class_L1D         0         0         0         0

@Sumon_Early_by_cycle_L1D         0         0         0         0         0         0         0         0         0         0         0         0
@Sumon_Late_by_cycle_L1D         0         0         0         0         0         0
@Sumon_Early_stream_L1D         0         0         0         0         0         0         0         0         0         0         0         0
@Sumon_Early_CS_L1D         0         0         0         0         0         0         0         0         0         0         0         0
@Sumon_Early_CPLX_L1D         0         0         0         0         0         0         0         0         0         0         0         0
@Sumon_Late_stream_L1D         0         0         0         0         0         0
@Sumon_Late_CS_L1D         0         0         0         0         0         0
@Sumon_Late_CPLX_L1D         0         0         0         0         0         0
@sumon_overall_L2C    304912      5518         0        97    305010   6469320   6761580
@Sumon_Early_by_class_L2C         0         0         0         0
@Sumon_Late_by_class_L2C         0         0         0         0

@Sumon_Early_by_cycle_L2C    285912     18265       577         0         0         0         0         0         0         0         0       158
@Sumon_Late_by_cycle_L2C       620      1715       311         7      2865         0
@Sumon_Early_stream_L2C         0         0         0         0         0         0         0         0         0         0         0         0
@Sumon_Early_CS_L2C         0         0         0         0         0         0         0         0         0         0         0         0
@Sumon_Early_CPLX_L2C         0         0         0         0         0         0         0         0         0         0         0         0
@Sumon_Late_stream_L2C         0         0         0         0         0         0
@Sumon_Late_CS_L2C         0         0         0         0         0         0
@Sumon_Late_CPLX_L2C         0         0         0         0         0         0
DRAM PAGES: 1048576
Allocated PAGES: 13844
