Initialize SIGNATURE TABLE
ST_SET: 1
ST_WAY: 256
ST_TAG_BIT: 16
ST_TAG_MASK: ffff

Initialize PATTERN TABLE
PT_SET: 512
PT_WAY: 4
SIG_DELTA_BIT: 7
C_SIG_BIT: 4
C_DELTA_BIT: 4

Initialize PREFETCH FILTER
FILTER_SET: 1024

*** ChampSim Multicore Out-of-Order Simulator ***

Warmup Instructions: 50000000
Simulation Instructions: 50000000
Number of CPUs: 1
LLC sets: 2048
LLC ways: 16
Off-chip DRAM Size: 4096 MB Channels: 1 Width: 64-bit Data Rate: 6400 MT/s
CPU 0 runs ../../biswa/SPEC2017Traces/654.roms_s-1390B.champsimtrace.xz
.xz
CPU 0 Bimodal branch predictor
BTB has LRU replacement policy
ITLB has LRU replacement policy
DTLB has LRU replacement policy
STLB has LRU replacement policy
L1I has LRU replacement policy
L1D has LRU replacement policy
ST_WAYS: 256
PT_SETS: 512
Initialize DRRIP state for L2C
Initialize DRRIP state for LLC
epoch: 1000
next table: 2194
cur table: 10107
epoch: 1000
next table: 2032
cur table: 2194
epoch: 1000
next table: 2021
cur table: 2032
epoch: 1000
next table: 2021
cur table: 2021
epoch: 1000
next table: 2016
cur table: 2021
epoch: 1000
next table: 2018
cur table: 2016
epoch: 1000
next table: 2015
cur table: 2018
epoch: 1000
next table: 2011
cur table: 2015
epoch: 1000
next table: 2013
cur table: 2011
epoch: 1000
next table: 2010
cur table: 2013
epoch: 1000
next table: 2018
cur table: 2010
epoch: 1000
next table: 2014
cur table: 2018
epoch: 1000
next table: 2011
cur table: 2014
epoch: 1000
next table: 2012
cur table: 2011
epoch: 1000
next table: 2017
cur table: 2012
epoch: 1000
next table: 2018
cur table: 2017
epoch: 1000
next table: 2010
cur table: 2018
epoch: 1000
next table: 2014
cur table: 2010
epoch: 1000
next table: 2014
cur table: 2014
epoch: 1000
next table: 2014
cur table: 2014
epoch: 1000
next table: 2015
cur table: 2014
epoch: 1000
next table: 2014
cur table: 2015
epoch: 1000
next table: 2240
cur table: 12149
epoch: 1000
next table: 2012
cur table: 2014
epoch: 1000
next table: 2012
cur table: 2012
epoch: 1000
next table: 1662
cur table: 2240
epoch: 1000
next table: 2012
cur table: 2012
epoch: 1000
next table: 1495
cur table: 1662
epoch: 1000
next table: 2014
cur table: 2012
epoch: 1000
next table: 1480
cur table: 1495
epoch: 1000
next table: 2017
cur table: 2014
epoch: 1000
next table: 1390
cur table: 1480
epoch: 1000
next table: 2015
cur table: 2017
epoch: 1000
next table: 1379
cur table: 1390
epoch: 1000
next table: 2012
cur table: 2015
epoch: 1000
next table: 1392
cur table: 1379
epoch: 1000
next table: 2016
cur table: 2012
epoch: 1000
next table: 1361
cur table: 1392
epoch: 1000
next table: 2015
cur table: 2016
epoch: 1000
next table: 1361
cur table: 1361
epoch: 1000
next table: 2016
cur table: 2015
epoch: 1000
next table: 1367
cur table: 1361
epoch: 1000
next table: 2016
cur table: 2016
epoch: 1000
next table: 1382
cur table: 1367
epoch: 1000
next table: 2015
cur table: 2016
epoch: 1000
next table: 1372
cur table: 1382
epoch: 1000
next table: 2017
cur table: 2015
epoch: 1000
next table: 1373
cur table: 1372
epoch: 1000
next table: 2013
cur table: 2017
epoch: 1000
next table: 1366
cur table: 1373
epoch: 1000
next table: 2016
cur table: 2013
epoch: 1000
next table: 1356
cur table: 1366
epoch: 1000
next table: 2016
cur table: 2016
epoch: 1000
next table: 1364
cur table: 1356
epoch: 1000
next table: 2010
cur table: 2016
epoch: 1000
next table: 1376
cur table: 1364
epoch: 1000
next table: 2017
cur table: 2010
epoch: 1000
next table: 1359
cur table: 1376
epoch: 1000
next table: 1357
cur table: 1359
epoch: 1000
next table: 2011
cur table: 2017
epoch: 1000
next table: 1380
cur table: 1357
epoch: 1000
next table: 2014
cur table: 2011
epoch: 1000
next table: 1363
cur table: 1380
epoch: 1000
next table: 2013
cur table: 2014
epoch: 1000
next table: 1364
cur table: 1363
epoch: 1000
next table: 2011
cur table: 2013
epoch: 1000
next table: 1371
cur table: 1364
epoch: 1000
next table: 2018
cur table: 2011
epoch: 1000
next table: 1370
cur table: 1371
epoch: 1000
next table: 2011
cur table: 2018
epoch: 1000
next table: 1367
cur table: 1370
epoch: 1000
next table: 2013
cur table: 2011
epoch: 1000
next table: 1360
cur table: 1367
epoch: 1000
next table: 2010
cur table: 2013
epoch: 1000
next table: 1363
cur table: 1360
epoch: 1000
next table: 2016
cur table: 2010
epoch: 1000
next table: 1360
cur table: 1363
epoch: 1000
next table: 2015
cur table: 2016
epoch: 1000
next table: 1366
cur table: 1360
epoch: 1000
next table: 2015
cur table: 2015
epoch: 1000
next table: 1357
cur table: 1366
epoch: 1000
next table: 2011
cur table: 2015
epoch: 1000
next table: 1364
cur table: 1357
epoch: 1000
next table: 2012
cur table: 2011
epoch: 1000
next table: 1363
cur table: 1364
epoch: 1000
next table: 2008
cur table: 2012
epoch: 1000
next table: 1374
cur table: 1363
epoch: 1000
next table: 2016
cur table: 2008
epoch: 1000
next table: 1384
cur table: 1374
epoch: 1000
next table: 2010
cur table: 2016
epoch: 1000
next table: 1373
cur table: 1384
epoch: 1000
next table: 2011
cur table: 2010
epoch: 1000
next table: 1389
cur table: 1373
epoch: 1000
next table: 2015
cur table: 2011
epoch: 1000
next table: 1372
cur table: 1389
epoch: 1000
next table: 2015
cur table: 2015
epoch: 1000
next table: 1362
cur table: 1372
epoch: 1000
next table: 2020
cur table: 2015
epoch: 1000
next table: 1356
cur table: 1362
epoch: 1000
next table: 2013
cur table: 2020
epoch: 1000
next table: 1360
cur table: 1356
epoch: 1000
next table: 1362
cur table: 1360
epoch: 1000
next table: 2011
cur table: 2013
epoch: 1000
next table: 1367
cur table: 1362
epoch: 1000
next table: 2014
cur table: 2011
epoch: 1000
next table: 1363
cur table: 1367
epoch: 1000
next table: 2014
cur table: 2014
epoch: 1000
next table: 1369
cur table: 1363
epoch: 1000
next table: 2015
cur table: 2014
epoch: 1000
next table: 1364
cur table: 1369
epoch: 1000
next table: 2018
cur table: 2015
epoch: 1000
next table: 1372
cur table: 1364
epoch: 1000
next table: 2015
cur table: 2018
epoch: 1000
next table: 1354
cur table: 1372
epoch: 1000
next table: 2012
cur table: 2015
epoch: 1000
next table: 1363
cur table: 1354
epoch: 1000
next table: 2014
cur table: 2012
epoch: 1000
next table: 1370
cur table: 1363
epoch: 1000
next table: 2019
cur table: 2014
epoch: 1000
next table: 1373
cur table: 1370
epoch: 1000
next table: 2013
cur table: 2019
epoch: 1000
next table: 1358
cur table: 1373
epoch: 1000
next table: 2012
cur table: 2013
epoch: 1000
next table: 1361
cur table: 1358
epoch: 1000
next table: 2012
cur table: 2012
epoch: 1000
next table: 1360
cur table: 1361
epoch: 1000
next table: 2012
cur table: 2012
epoch: 1000
next table: 1365
cur table: 1360
epoch: 1000
next table: 2016
cur table: 2012
epoch: 1000
next table: 1371
cur table: 1365
epoch: 1000
next table: 2012
cur table: 2016
epoch: 1000
next table: 1362
cur table: 1371
epoch: 1000
next table: 2011
cur table: 2012
epoch: 1000
next table: 1373
cur table: 1362
epoch: 1000
next table: 2014
cur table: 2011
epoch: 1000
next table: 1349
cur table: 1373
epoch: 1000
next table: 2014
cur table: 2014
epoch: 1000
next table: 1372
cur table: 1349
epoch: 1000
next table: 2014
cur table: 2014
epoch: 1000
next table: 1361
cur table: 1372
epoch: 1000
next table: 1368
cur table: 1361
epoch: 1000
next table: 2013
cur table: 2014
epoch: 1000
next table: 1364
cur table: 1368
epoch: 1000
next table: 2011
cur table: 2013
epoch: 1000
next table: 1360
cur table: 1364
epoch: 1000
next table: 2014
cur table: 2011
epoch: 1000
next table: 1360
cur table: 1360
epoch: 1000
next table: 2011
cur table: 2014
epoch: 1000
next table: 1362
cur table: 1360
epoch: 1000
next table: 2014
cur table: 2011
epoch: 1000
next table: 1363
cur table: 1362
epoch: 1000
next table: 2011
cur table: 2014
epoch: 1000
next table: 1365
cur table: 1363
epoch: 1000
next table: 2010
cur table: 2011
epoch: 1000
next table: 1364
cur table: 1365
epoch: 1000
next table: 2014
cur table: 2010
epoch: 1000
next table: 1363
cur table: 1364
epoch: 1000
next table: 2014
cur table: 2014
epoch: 1000
next table: 1359
cur table: 1363
epoch: 1000
next table: 2012
cur table: 2014
epoch: 1000
next table: 1371
cur table: 1359
epoch: 1000
next table: 2015
cur table: 2012
epoch: 1000
next table: 1364
cur table: 1371
epoch: 1000
next table: 2011
cur table: 2015
epoch: 1000
next table: 1368
cur table: 1364
epoch: 1000
next table: 2014
cur table: 2011
epoch: 1000
next table: 1358
cur table: 1368
epoch: 1000
next table: 2016
cur table: 2014
epoch: 1000
next table: 1373
cur table: 1358
epoch: 1000
next table: 2014
cur table: 2016
epoch: 1000
next table: 1404
cur table: 1373
epoch: 1000
next table: 2016
cur table: 2014
epoch: 1000
next table: 1380
cur table: 1404
epoch: 1000
next table: 2012
cur table: 2016
epoch: 1000
next table: 1374
cur table: 1380
epoch: 1000
next table: 2012
cur table: 2012
epoch: 1000
next table: 1364
cur table: 1374
epoch: 1000
next table: 2019
cur table: 2012
epoch: 1000
next table: 1373
cur table: 1364
epoch: 1000
next table: 2016
cur table: 2019
epoch: 1000
next table: 1372
cur table: 1373
epoch: 1000
next table: 2010
cur table: 2016
epoch: 1000
next table: 1362
cur table: 1372
epoch: 1000
next table: 2016
cur table: 2010
epoch: 1000
next table: 1363
cur table: 1362
epoch: 1000
next table: 1355
cur table: 1363
epoch: 1000
next table: 2010
cur table: 2016
epoch: 1000
next table: 1382
cur table: 1355
epoch: 1000
next table: 2021
cur table: 2010
epoch: 1000
next table: 1376
cur table: 1382
epoch: 1000
next table: 2011
cur table: 2021
epoch: 1000
next table: 1364
cur table: 1376
epoch: 1000
next table: 2013
cur table: 2011
epoch: 1000
next table: 1371
cur table: 1364
epoch: 1000
next table: 2010
cur table: 2013
epoch: 1000
next table: 1366
cur table: 1371
epoch: 1000
next table: 2017
cur table: 2010
epoch: 1000
next table: 1363
cur table: 1366
epoch: 1000
next table: 2018
cur table: 2017
epoch: 1000
next table: 1356
cur table: 1363
epoch: 1000
next table: 2012
cur table: 2018
epoch: 1000
next table: 1365
cur table: 1356
epoch: 1000
next table: 2012
cur table: 2012
epoch: 1000
next table: 1360
cur table: 1365
epoch: 1000
next table: 2014
cur table: 2012
epoch: 1000
next table: 1374
cur table: 1360
epoch: 1000
next table: 2017
cur table: 2014
epoch: 1000
next table: 1370
cur table: 1374
epoch: 1000
next table: 2020
cur table: 2017
epoch: 1000
next table: 1370
cur table: 1370
epoch: 1000
next table: 2012
cur table: 2020
epoch: 1000
next table: 1381
cur table: 1370
epoch: 1000
next table: 2014
cur table: 2012
epoch: 1000
next table: 1357
cur table: 1381
epoch: 1000
next table: 2011
cur table: 2014
epoch: 1000
next table: 1362
cur table: 1357
epoch: 1000
next table: 2017
cur table: 2011
epoch: 1000
next table: 1354
cur table: 1362
epoch: 1000
next table: 2018
cur table: 2017
epoch: 1000
next table: 1373
cur table: 1354
epoch: 1000
next table: 2017
cur table: 2018
epoch: 1000
next table: 1367
cur table: 1373
epoch: 1000
next table: 2010
cur table: 2017
epoch: 1000
next table: 1366
cur table: 1367
epoch: 1000
next table: 1374
cur table: 1366
epoch: 1000
next table: 2015
cur table: 2010
epoch: 1000
next table: 1356
cur table: 1374
epoch: 1000
next table: 2016
cur table: 2015
epoch: 1000
next table: 1366
cur table: 1356
epoch: 1000
next table: 2016
cur table: 2016
epoch: 1000
next table: 1367
cur table: 1366
epoch: 1000
next table: 2017
cur table: 2016
epoch: 1000
next table: 1364
cur table: 1367
epoch: 1000
next table: 2013
cur table: 2017
epoch: 1000
next table: 1362
cur table: 1364
epoch: 1000
next table: 2016
cur table: 2013
epoch: 1000
next table: 1366
cur table: 1362
epoch: 1000
next table: 2016
cur table: 2016
epoch: 1000
next table: 1362
cur table: 1366
epoch: 1000
next table: 2016
cur table: 2016
epoch: 1000
next table: 1370
cur table: 1362
epoch: 1000
next table: 2015
cur table: 2016
epoch: 1000
next table: 1361
cur table: 1370
epoch: 1000
next table: 2013
cur table: 2015
epoch: 1000
next table: 1362
cur table: 1361
epoch: 1000
next table: 2013
cur table: 2013
epoch: 1000
next table: 1384
cur table: 1362
epoch: 1000
next table: 2016
cur table: 2013
epoch: 1000
next table: 1370
cur table: 1384
epoch: 1000
next table: 2013
cur table: 2016
epoch: 1000
next table: 1388
cur table: 1370
epoch: 1000
next table: 2011
cur table: 2013
epoch: 1000
next table: 1383
cur table: 1388
epoch: 1000
next table: 2015
cur table: 2011
epoch: 1000
next table: 1384
cur table: 1383
epoch: 1000
next table: 2015
cur table: 2015
epoch: 1000
next table: 1377
cur table: 1384
epoch: 1000
next table: 2051
cur table: 2015
epoch: 1000
next table: 1424
cur table: 1377
epoch: 1000
next table: 2328
cur table: 2051
epoch: 1000
next table: 1391
cur table: 1424
epoch: 1000
next table: 2332
cur table: 2328
epoch: 1000
next table: 1363
cur table: 1391
epoch: 1000
next table: 2335
cur table: 2332
epoch: 1000
next table: 1440
cur table: 1363
epoch: 1000
next table: 2335
cur table: 2335
epoch: 1000
next table: 1401
cur table: 1440
epoch: 1000
next table: 1395
cur table: 1401
epoch: 1000
next table: 2325
cur table: 2335
epoch: 1000
next table: 1390
cur table: 1395
epoch: 1000
next table: 2331
cur table: 2325
epoch: 1000
next table: 1406
cur table: 1390
epoch: 1000
next table: 2335
cur table: 2331
epoch: 1000
next table: 1410
cur table: 1406
epoch: 1000
next table: 2336
cur table: 2335
epoch: 1000
next table: 1426
cur table: 1410
epoch: 1000
next table: 2323
cur table: 2336
epoch: 1000
next table: 1360
cur table: 1426
epoch: 1000
next table: 2327
cur table: 2323
epoch: 1000
next table: 1427
cur table: 1360
epoch: 1000
next table: 2320
cur table: 2327
epoch: 1000
next table: 1407
cur table: 1427
epoch: 1000
next table: 2341
cur table: 2320
epoch: 1000
next table: 1432
cur table: 1407
epoch: 1000
next table: 2327
cur table: 2341
epoch: 1000
next table: 1376
cur table: 1432
epoch: 1000
next table: 2332
cur table: 2327
epoch: 1000
next table: 1428
cur table: 1376
epoch: 1000
next table: 2330
cur table: 2332
epoch: 1000
next table: 1388
cur table: 1428
epoch: 1000
next table: 2327
cur table: 2330
epoch: 1000
next table: 1431
cur table: 1388
epoch: 1000
next table: 2333
cur table: 2327
epoch: 1000
next table: 1425
cur table: 1431
epoch: 1000
next table: 2333
cur table: 2333
epoch: 1000
next table: 1422
cur table: 1425
epoch: 1000
next table: 2318
cur table: 2333
epoch: 1000
next table: 1399
cur table: 1422
epoch: 1000
next table: 2326
cur table: 2318
epoch: 1000
next table: 1413
cur table: 1399
epoch: 1000
next table: 2332
cur table: 2326
epoch: 1000
next table: 1400
cur table: 1413
epoch: 1000
next table: 2331
cur table: 2332
epoch: 1000
next table: 1400
cur table: 1400
epoch: 1000
next table: 2339
cur table: 2331
epoch: 1000
next table: 1412
cur table: 1400
epoch: 1000
next table: 2321
cur table: 2339
epoch: 1000
next table: 1396
cur table: 1412
epoch: 1000
next table: 1378
cur table: 1396
epoch: 1000
next table: 2327
cur table: 2321
epoch: 1000
next table: 1374
cur table: 1378
epoch: 1000
next table: 2327
cur table: 2327
epoch: 1000
next table: 1407
cur table: 1374
epoch: 1000
next table: 2338
cur table: 2327
epoch: 1000
next table: 1380
cur table: 1407
epoch: 1000
next table: 2333
cur table: 2338
epoch: 1000
next table: 1423
cur table: 1380
epoch: 1000
next table: 2320
cur table: 2333
epoch: 1000
next table: 1425
cur table: 1423
epoch: 1000
next table: 2327
cur table: 2320
epoch: 1000
next table: 1395
cur table: 1425
epoch: 1000
next table: 2331
cur table: 2327
epoch: 1000
next table: 1417
cur table: 1395
epoch: 1000
next table: 2331
cur table: 2331
epoch: 1000
next table: 1411
cur table: 1417
epoch: 1000
next table: 2334
cur table: 2331
epoch: 1000
next table: 1401
cur table: 1411
epoch: 1000
next table: 2324
cur table: 2334
epoch: 1000
next table: 1435
cur table: 1401
epoch: 1000
next table: 2325
cur table: 2324
epoch: 1000
next table: 1459
cur table: 1435
epoch: 1000
next table: 2329
cur table: 2325
epoch: 1000
next table: 1420
cur table: 1459
epoch: 1000
next table: 2333
cur table: 2329
epoch: 1000
next table: 1400
cur table: 1420
epoch: 1000
next table: 2338
cur table: 2333
epoch: 1000
next table: 1326
cur table: 1400
epoch: 1000
next table: 2329
cur table: 2338
epoch: 1000
next table: 1446
cur table: 1326
epoch: 1000
next table: 2335
cur table: 2329
epoch: 1000
next table: 1395
cur table: 1446
epoch: 1000
next table: 2329
cur table: 2335
epoch: 1000
next table: 1359
cur table: 1395
epoch: 1000
next table: 2333
cur table: 2329
epoch: 1000
next table: 1408
cur table: 1359
epoch: 1000
next table: 2331
cur table: 2333
epoch: 1000
next table: 1444
cur table: 1408
epoch: 1000
next table: 2329
cur table: 2331
epoch: 1000
next table: 1352
cur table: 1444
epoch: 1000
next table: 2331
cur table: 2329
epoch: 1000
next table: 1385
cur table: 1352
epoch: 1000
next table: 2327
cur table: 2331
epoch: 1000
next table: 1417
cur table: 1385
epoch: 1000
next table: 2332
cur table: 2327
epoch: 1000
next table: 1367
cur table: 1417
epoch: 1000
next table: 1439
cur table: 1367
epoch: 1000
next table: 2334
cur table: 2332
epoch: 1000
next table: 1403
cur table: 1439
epoch: 1000
next table: 2331
cur table: 2334
epoch: 1000
next table: 1436
cur table: 1403
epoch: 1000
next table: 2322
cur table: 2331
epoch: 1000
next table: 1393
cur table: 1436
epoch: 1000
next table: 2336
cur table: 2322
epoch: 1000
next table: 1372
cur table: 1393
epoch: 1000
next table: 2334
cur table: 2336
epoch: 1000
next table: 1412
cur table: 1372
epoch: 1000
next table: 2336
cur table: 2334
epoch: 1000
next table: 1425
cur table: 1412
epoch: 1000
next table: 2325
cur table: 2336
epoch: 1000
next table: 1388
cur table: 1425
epoch: 1000
next table: 2328
cur table: 2325
epoch: 1000
next table: 1434
cur table: 1388
epoch: 1000
next table: 2331
cur table: 2328
epoch: 1000
next table: 1416
cur table: 1434
epoch: 1000
next table: 2322
cur table: 2331
epoch: 1000
next table: 1376
cur table: 1416
epoch: 1000
next table: 2337
cur table: 2322
epoch: 1000
next table: 1425
cur table: 1376
epoch: 1000
next table: 2329
cur table: 2337
epoch: 1000
next table: 1414
cur table: 1425
epoch: 1000
next table: 2331
cur table: 2329
epoch: 1000
next table: 1428
cur table: 1414
epoch: 1000
next table: 2325
cur table: 2331
epoch: 1000
next table: 1385
cur table: 1428
epoch: 1000
next table: 2332
cur table: 2325
epoch: 1000
next table: 1417
cur table: 1385
epoch: 1000
next table: 2337
cur table: 2332
epoch: 1000
next table: 1397
cur table: 1417
epoch: 1000
next table: 2328
cur table: 2337
epoch: 1000
next table: 1435
cur table: 1397
epoch: 1000
next table: 2324
cur table: 2328
epoch: 1000
next table: 1378
cur table: 1435
epoch: 1000
next table: 2338
cur table: 2324
epoch: 1000
next table: 1417
cur table: 1378
epoch: 1000
next table: 2333
cur table: 2338
epoch: 1000
next table: 1381
cur table: 1417
epoch: 1000
next table: 1421
cur table: 1381
epoch: 1000
next table: 2325
cur table: 2333
epoch: 1000
next table: 1429
cur table: 1421
epoch: 1000
next table: 2326
cur table: 2325
epoch: 1000
next table: 1419
cur table: 1429
epoch: 1000
next table: 2326
cur table: 2326
epoch: 1000
next table: 1376
cur table: 1419
epoch: 1000
next table: 2343
cur table: 2326
epoch: 1000
next table: 1457
cur table: 1376
epoch: 1000
next table: 2326
cur table: 2343
epoch: 1000
next table: 1433
cur table: 1457
epoch: 1000
next table: 2329
cur table: 2326
epoch: 1000
next table: 1436
cur table: 1433
epoch: 1000
next table: 2326
cur table: 2329
epoch: 1000
next table: 1469
cur table: 1436
epoch: 1000
next table: 2329
cur table: 2326
epoch: 1000
next table: 1423
cur table: 1469
epoch: 1000
next table: 2330
cur table: 2329
epoch: 1000
next table: 1385
cur table: 1423
epoch: 1000
next table: 2334
cur table: 2330
epoch: 1000
next table: 1373
cur table: 1385
epoch: 1000
next table: 2331
cur table: 2334
epoch: 1000
next table: 1412
cur table: 1373
epoch: 1000
next table: 2331
cur table: 2331
epoch: 1000
next table: 1409
cur table: 1412
epoch: 1000
next table: 2326
cur table: 2331
epoch: 1000
next table: 1437
cur table: 1409
epoch: 1000
next table: 2333
cur table: 2326
epoch: 1000
next table: 1377
cur table: 1437
epoch: 1000
next table: 2331
cur table: 2333
epoch: 1000
next table: 1444
cur table: 1377
epoch: 1000
next table: 2337
cur table: 2331
epoch: 1000
next table: 1386
cur table: 1444
epoch: 1000
next table: 2325
cur table: 2337
epoch: 1000
next table: 1450
cur table: 1386
epoch: 1000
next table: 2327
cur table: 2325
epoch: 1000
next table: 1407
cur table: 1450
epoch: 1000
next table: 2332
cur table: 2327
epoch: 1000
next table: 1430
cur table: 1407
epoch: 1000
next table: 2330
cur table: 2332
epoch: 1000
next table: 1429
cur table: 1430
epoch: 1000
next table: 2328
cur table: 2330
epoch: 1000
next table: 1444
cur table: 1429
epoch: 1000
next table: 2332
cur table: 2328
epoch: 1000
next table: 1418
cur table: 1444
epoch: 1000
next table: 1420
cur table: 1418
epoch: 1000
next table: 2312
cur table: 2332
epoch: 1000
next table: 1432
cur table: 1420
epoch: 1000
next table: 2330
cur table: 2312
epoch: 1000
next table: 1415
cur table: 1432
epoch: 1000
next table: 2328
cur table: 2330
epoch: 1000
next table: 1393
cur table: 1415
epoch: 1000
next table: 2332
cur table: 2328
epoch: 1000
next table: 1428
cur table: 1393
epoch: 1000
next table: 2324
cur table: 2332
epoch: 1000
next table: 1406
cur table: 1428
epoch: 1000
next table: 2328
cur table: 2324
epoch: 1000
next table: 1454
cur table: 1406
epoch: 1000
next table: 2333
cur table: 2328
epoch: 1000
next table: 1413
cur table: 1454
epoch: 1000
next table: 2329
cur table: 2333
epoch: 1000
next table: 1415
cur table: 1413
epoch: 1000
next table: 2332
cur table: 2329
epoch: 1000
next table: 1451
cur table: 1415
epoch: 1000
next table: 2322
cur table: 2332
epoch: 1000
next table: 1417
cur table: 1451
epoch: 1000
next table: 2328
cur table: 2322
epoch: 1000
next table: 1425
cur table: 1417
epoch: 1000
next table: 2326
cur table: 2328
epoch: 1000
next table: 1440
cur table: 1425
epoch: 1000
next table: 2320
cur table: 2326
epoch: 1000
next table: 1430
cur table: 1440
epoch: 1000
next table: 2324
cur table: 2320
epoch: 1000
next table: 1471
cur table: 1430
epoch: 1000
next table: 2327
cur table: 2324
epoch: 1000
next table: 1390
cur table: 1471
epoch: 1000
next table: 2318
cur table: 2327
epoch: 1000
next table: 1406
cur table: 1390
epoch: 1000
next table: 2332
cur table: 2318
epoch: 1000
next table: 1434
cur table: 1406
epoch: 1000
next table: 2331
cur table: 2332
epoch: 1000
next table: 1412
cur table: 1434
epoch: 1000
next table: 2331
cur table: 2331
epoch: 1000
next table: 1445
cur table: 1412
epoch: 1000
next table: 2322
cur table: 2331
epoch: 1000
next table: 1362
cur table: 1445
epoch: 1000
next table: 2317
cur table: 2322
epoch: 1000
next table: 1409
cur table: 1362
epoch: 1000
next table: 1461
cur table: 1409
epoch: 1000
next table: 2330
cur table: 2317
epoch: 1000
next table: 1404
cur table: 1461
epoch: 1000
next table: 2326
cur table: 2330
epoch: 1000
next table: 1465
cur table: 1404
epoch: 1000
next table: 2324
cur table: 2326
epoch: 1000
next table: 1466
cur table: 1465
epoch: 1000
next table: 2320
cur table: 2324
epoch: 1000
next table: 1432
cur table: 1466
epoch: 1000
next table: 2326
cur table: 2320
epoch: 1000
next table: 1364
cur table: 1432
epoch: 1000
next table: 2328
cur table: 2326
epoch: 1000
next table: 1421
cur table: 1364
epoch: 1000
next table: 2336
cur table: 2328
epoch: 1000
next table: 1449
cur table: 1421
epoch: 1000
next table: 2338
cur table: 2336
epoch: 1000
next table: 1400
cur table: 1449
epoch: 1000
next table: 2327
cur table: 2338
epoch: 1000
next table: 1449
cur table: 1400
epoch: 1000
next table: 2322
cur table: 2327
epoch: 1000
next table: 1383
cur table: 1449
epoch: 1000
next table: 2340
cur table: 2322
epoch: 1000
next table: 1414
cur table: 1383
epoch: 1000
next table: 2330
cur table: 2340
epoch: 1000
next table: 1456
cur table: 1414
epoch: 1000
next table: 2323
cur table: 2330
epoch: 1000
next table: 1436
cur table: 1456
epoch: 1000
next table: 2329
cur table: 2323
epoch: 1000
next table: 1420
cur table: 1436
epoch: 1000
next table: 2321
cur table: 2329
epoch: 1000
next table: 1434
cur table: 1420
epoch: 1000
next table: 2322
cur table: 2321
epoch: 1000
next table: 1415
cur table: 1434
epoch: 1000
next table: 2324
cur table: 2322
epoch: 1000
next table: 1444
cur table: 1415
epoch: 1000
next table: 2338
cur table: 2324
epoch: 1000
next table: 1445
cur table: 1444
epoch: 1000
next table: 2328
cur table: 2338
epoch: 1000
next table: 1396
cur table: 1445
epoch: 1000
next table: 2324
cur table: 2328
epoch: 1000
next table: 1427
cur table: 1396
epoch: 1000
next table: 2327
cur table: 2324
epoch: 1000
next table: 1400
cur table: 1427
epoch: 1000
next table: 2334
cur table: 2327
epoch: 1000
next table: 1408
cur table: 1400
epoch: 1000
next table: 2326
cur table: 2334
epoch: 1000
next table: 1403
cur table: 1408
epoch: 1000
next table: 2323
cur table: 2326
epoch: 1000
next table: 1422
cur table: 1403
epoch: 1000
next table: 2327
cur table: 2323
epoch: 1000
next table: 1416
cur table: 1422
epoch: 1000
next table: 1437
cur table: 1416
epoch: 1000
next table: 2318
cur table: 2327
epoch: 1000
next table: 1390
cur table: 1437
epoch: 1000
next table: 2328
cur table: 2318
epoch: 1000
next table: 1438
cur table: 1390
epoch: 1000
next table: 2323
cur table: 2328
epoch: 1000
next table: 1388
cur table: 1438
epoch: 1000
next table: 2332
cur table: 2323
epoch: 1000
next table: 1408
cur table: 1388
epoch: 1000
next table: 2321
cur table: 2332
epoch: 1000
next table: 1413
cur table: 1408
epoch: 1000
next table: 2319
cur table: 2321
Heartbeat CPU 0 instructions: 10000001 cycles: 3758631 heartbeat IPC: 2.66054 cumulative IPC: 2.66054 (Simulation time: 0 hr 3 min 21 sec) 
epoch: 1000
next table: 1440
cur table: 1413
epoch: 1000
next table: 2328
cur table: 2319
epoch: 1000
next table: 1380
cur table: 1440
epoch: 1000
next table: 2335
cur table: 2328
epoch: 1000
next table: 1420
cur table: 1380
epoch: 1000
next table: 2311
cur table: 2335
epoch: 1000
next table: 1403
cur table: 1420
epoch: 1000
next table: 2333
cur table: 2311
epoch: 1000
next table: 1454
cur table: 1403
epoch: 1000
next table: 2327
cur table: 2333
epoch: 1000
next table: 1401
cur table: 1454
epoch: 1000
next table: 2334
cur table: 2327
epoch: 1000
next table: 1395
cur table: 1401
epoch: 1000
next table: 2319
cur table: 2334
epoch: 1000
next table: 1428
cur table: 1395
epoch: 1000
next table: 2326
cur table: 2319
epoch: 1000
next table: 1413
cur table: 1428
epoch: 1000
next table: 2329
cur table: 2326
epoch: 1000
next table: 1385
cur table: 1413
epoch: 1000
next table: 2323
cur table: 2329
epoch: 1000
next table: 1402
cur table: 1385
epoch: 1000
next table: 2325
cur table: 2323
epoch: 1000
next table: 1445
cur table: 1402
epoch: 1000
next table: 2328
cur table: 2325
epoch: 1000
next table: 1433
cur table: 1445
epoch: 1000
next table: 2330
cur table: 2328
epoch: 1000
next table: 1402
cur table: 1433
epoch: 1000
next table: 2321
cur table: 2330
epoch: 1000
next table: 1437
cur table: 1402
epoch: 1000
next table: 2328
cur table: 2321
epoch: 1000
next table: 1445
cur table: 1437
epoch: 1000
next table: 2335
cur table: 2328
epoch: 1000
next table: 1444
cur table: 1445
epoch: 1000
next table: 2328
cur table: 2335
epoch: 1000
next table: 1396
cur table: 1444
epoch: 1000
next table: 2329
cur table: 2328
epoch: 1000
next table: 1335
cur table: 1396
epoch: 1000
next table: 2326
cur table: 2329
epoch: 1000
next table: 1429
cur table: 1335
epoch: 1000
next table: 1430
cur table: 1429
epoch: 1000
next table: 2330
cur table: 2326
epoch: 1000
next table: 1379
cur table: 1430
epoch: 1000
next table: 2332
cur table: 2330
epoch: 1000
next table: 1429
cur table: 1379
epoch: 1000
next table: 2328
cur table: 2332
epoch: 1000
next table: 1376
cur table: 1429
epoch: 1000
next table: 2333
cur table: 2328
epoch: 1000
next table: 1453
cur table: 1376
epoch: 1000
next table: 2327
cur table: 2333
epoch: 1000
next table: 1383
cur table: 1453
epoch: 1000
next table: 2326
cur table: 2327
epoch: 1000
next table: 1412
cur table: 1383
epoch: 1000
next table: 2324
cur table: 2326
epoch: 1000
next table: 1353
cur table: 1412
epoch: 1000
next table: 2333
cur table: 2324
epoch: 1000
next table: 1397
cur table: 1353
epoch: 1000
next table: 2333
cur table: 2333
epoch: 1000
next table: 1427
cur table: 1397
epoch: 1000
next table: 2328
cur table: 2333
epoch: 1000
next table: 1424
cur table: 1427
epoch: 1000
next table: 2318
cur table: 2328
epoch: 1000
next table: 1414
cur table: 1424
epoch: 1000
next table: 2332
cur table: 2318
epoch: 1000
next table: 1440
cur table: 1414
epoch: 1000
next table: 2326
cur table: 2332
epoch: 1000
next table: 1387
cur table: 1440
epoch: 1000
next table: 2332
cur table: 2326
epoch: 1000
next table: 1435
cur table: 1387
epoch: 1000
next table: 2319
cur table: 2332
epoch: 1000
next table: 1380
cur table: 1435
epoch: 1000
next table: 2329
cur table: 2319
epoch: 1000
next table: 1442
cur table: 1380
epoch: 1000
next table: 2334
cur table: 2329
epoch: 1000
next table: 1396
cur table: 1442
epoch: 1000
next table: 2324
cur table: 2334
epoch: 1000
next table: 1426
cur table: 1396
epoch: 1000
next table: 2324
cur table: 2324
epoch: 1000
next table: 1423
cur table: 1426
epoch: 1000
next table: 2326
cur table: 2324
epoch: 1000
next table: 1420
cur table: 1423
epoch: 1000
next table: 2325
cur table: 2326
epoch: 1000
next table: 1399
cur table: 1420
epoch: 1000
next table: 1422
cur table: 1399
epoch: 1000
next table: 2329
cur table: 2325
epoch: 1000
next table: 1408
cur table: 1422
epoch: 1000
next table: 2330
cur table: 2329
epoch: 1000
next table: 1413
cur table: 1408
epoch: 1000
next table: 2322
cur table: 2330
epoch: 1000
next table: 1369
cur table: 1413
epoch: 1000
next table: 2332
cur table: 2322
epoch: 1000
next table: 1416
cur table: 1369
epoch: 1000
next table: 2319
cur table: 2332
epoch: 1000
next table: 1361
cur table: 1416
epoch: 1000
next table: 2336
cur table: 2319
epoch: 1000
next table: 1436
cur table: 1361
epoch: 1000
next table: 2330
cur table: 2336
epoch: 1000
next table: 1413
cur table: 1436
epoch: 1000
next table: 2325
cur table: 2330
epoch: 1000
next table: 1449
cur table: 1413
epoch: 1000
next table: 2327
cur table: 2325
epoch: 1000
next table: 1445
cur table: 1449
epoch: 1000
next table: 2326
cur table: 2327
epoch: 1000
next table: 1323
cur table: 1445
epoch: 1000
next table: 2326
cur table: 2326
epoch: 1000
next table: 1427
cur table: 1323
epoch: 1000
next table: 2334
cur table: 2326
epoch: 1000
next table: 1390
cur table: 1427
epoch: 1000
next table: 2323
cur table: 2334
epoch: 1000
next table: 1400
cur table: 1390
epoch: 1000
next table: 2322
cur table: 2323
epoch: 1000
next table: 1358
cur table: 1400
epoch: 1000
next table: 2322
cur table: 2322
epoch: 1000
next table: 1367
cur table: 1358
epoch: 1000
next table: 2328
cur table: 2322
epoch: 1000
next table: 1405
cur table: 1367
epoch: 1000
next table: 2333
cur table: 2328
epoch: 1000
next table: 1474
cur table: 1405
epoch: 1000
next table: 2327
cur table: 2333
epoch: 1000
next table: 1431
cur table: 1474
epoch: 1000
next table: 2326
cur table: 2327
epoch: 1000
next table: 1443
cur table: 1431
epoch: 1000
next table: 2328
cur table: 2326
epoch: 1000
next table: 1446
cur table: 1443
epoch: 1000
next table: 2333
cur table: 2328
epoch: 1000
next table: 1411
cur table: 1446
epoch: 1000
next table: 2319
cur table: 2333
epoch: 1000
next table: 1417
cur table: 1411
epoch: 1000
next table: 2337
cur table: 2319
epoch: 1000
next table: 1428
cur table: 1417
epoch: 1000
next table: 1431
cur table: 1428
epoch: 1000
next table: 2331
cur table: 2337
epoch: 1000
next table: 1449
cur table: 1431
epoch: 1000
next table: 2317
cur table: 2331
epoch: 1000
next table: 1426
cur table: 1449
epoch: 1000
next table: 2333
cur table: 2317
epoch: 1000
next table: 1406
cur table: 1426
epoch: 1000
next table: 2331
cur table: 2333
epoch: 1000
next table: 1413
cur table: 1406
epoch: 1000
next table: 2335
cur table: 2331
epoch: 1000
next table: 1430
cur table: 1413
epoch: 1000
next table: 2329
cur table: 2335
epoch: 1000
next table: 1372
cur table: 1430
epoch: 1000
next table: 2323
cur table: 2329
epoch: 1000
next table: 1439
cur table: 1372
epoch: 1000
next table: 2325
cur table: 2323
epoch: 1000
next table: 1412
cur table: 1439
epoch: 1000
next table: 2329
cur table: 2325
epoch: 1000
next table: 1401
cur table: 1412
epoch: 1000
next table: 2332
cur table: 2329
epoch: 1000
next table: 1396
cur table: 1401
epoch: 1000
next table: 2321
cur table: 2332
epoch: 1000
next table: 1403
cur table: 1396
epoch: 1000
next table: 2329
cur table: 2321
epoch: 1000
next table: 1366
cur table: 1403
epoch: 1000
next table: 2329
cur table: 2329
epoch: 1000
next table: 1417
cur table: 1366
epoch: 1000
next table: 2330
cur table: 2329
epoch: 1000
next table: 1385
cur table: 1417
epoch: 1000
next table: 2326
cur table: 2330
epoch: 1000
next table: 1392
cur table: 1385
epoch: 1000
next table: 2334
cur table: 2326
epoch: 1000
next table: 1429
cur table: 1392
epoch: 1000
next table: 2327
cur table: 2334
epoch: 1000
next table: 1351
cur table: 1429
epoch: 1000
next table: 2335
cur table: 2327
epoch: 1000
next table: 1410
cur table: 1351
epoch: 1000
next table: 2330
cur table: 2335
epoch: 1000
next table: 1430
cur table: 1410
epoch: 1000
next table: 2327
cur table: 2330
epoch: 1000
next table: 1384
cur table: 1430
epoch: 1000
next table: 2323
cur table: 2327
epoch: 1000
next table: 1443
cur table: 1384
epoch: 1000
next table: 1347
cur table: 1443
epoch: 1000
next table: 2333
cur table: 2323
epoch: 1000
next table: 1429
cur table: 1347
epoch: 1000
next table: 2328
cur table: 2333
epoch: 1000
next table: 1413
cur table: 1429
epoch: 1000
next table: 2326
cur table: 2328
epoch: 1000
next table: 1353
cur table: 1413
epoch: 1000
next table: 2327
cur table: 2326
epoch: 1000
next table: 1424
cur table: 1353
epoch: 1000
next table: 2323
cur table: 2327
epoch: 1000
next table: 1488
cur table: 1424
epoch: 1000
next table: 2323
cur table: 2323
epoch: 1000
next table: 1377
cur table: 1488
epoch: 1000
next table: 2316
cur table: 2323
epoch: 1000
next table: 1384
cur table: 1377
epoch: 1000
next table: 2338
cur table: 2316
epoch: 1000
next table: 1436
cur table: 1384
epoch: 1000
next table: 2326
cur table: 2338
epoch: 1000
next table: 1448
cur table: 1436
epoch: 1000
next table: 2143
cur table: 2326
epoch: 1000
next table: 1633
cur table: 1448
epoch: 1000
next table: 2017
cur table: 2143
epoch: 1000
next table: 1635
cur table: 1633
epoch: 1000
next table: 2019
cur table: 2017
epoch: 1000
next table: 1640
cur table: 1635
epoch: 1000
next table: 2017
cur table: 2019
epoch: 1000
next table: 1629
cur table: 1640
epoch: 1000
next table: 2018
cur table: 2017
epoch: 1000
next table: 1635
cur table: 1629
epoch: 1000
next table: 2018
cur table: 2018
epoch: 1000
next table: 1634
cur table: 1635
epoch: 1000
next table: 2018
cur table: 2018
epoch: 1000
next table: 1638
cur table: 1634
epoch: 1000
next table: 2018
cur table: 2018
epoch: 1000
next table: 1636
cur table: 1638
epoch: 1000
next table: 2019
cur table: 2018
epoch: 1000
next table: 1634
cur table: 1636
epoch: 1000
next table: 2021
cur table: 2019
epoch: 1000
next table: 1637
cur table: 1634
epoch: 1000
next table: 2015
cur table: 2021
epoch: 1000
next table: 1635
cur table: 1637
epoch: 1000
next table: 2018
cur table: 2015
epoch: 1000
next table: 1632
cur table: 1635
epoch: 1000
next table: 2019
cur table: 2018
epoch: 1000
next table: 1636
cur table: 1632
epoch: 1000
next table: 2020
cur table: 2019
epoch: 1000
next table: 1636
cur table: 1636
epoch: 1000
next table: 2016
cur table: 2020
epoch: 1000
next table: 1633
cur table: 1636
epoch: 1000
next table: 2018
cur table: 2016
epoch: 1000
next table: 1637
cur table: 1633
epoch: 1000
next table: 2019
cur table: 2018
epoch: 1000
next table: 1631
cur table: 1637
epoch: 1000
next table: 2019
cur table: 2019
epoch: 1000
next table: 1639
cur table: 1631
epoch: 1000
next table: 2019
cur table: 2019
epoch: 1000
next table: 1636
cur table: 1639
epoch: 1000
next table: 2017
cur table: 2019
epoch: 1000
next table: 1637
cur table: 1636
epoch: 1000
next table: 2017
cur table: 2017
epoch: 1000
next table: 1632
cur table: 1637
epoch: 1000
next table: 2019
cur table: 2017
epoch: 1000
next table: 1634
cur table: 1632
epoch: 1000
next table: 2016
cur table: 2019
epoch: 1000
next table: 1633
cur table: 1634
epoch: 1000
next table: 2018
cur table: 2016
epoch: 1000
next table: 1642
cur table: 1633
epoch: 1000
next table: 2019
cur table: 2018
epoch: 1000
next table: 1627
cur table: 1642
epoch: 1000
next table: 2019
cur table: 2019
epoch: 1000
next table: 1637
cur table: 1627
epoch: 1000
next table: 2017
cur table: 2019
epoch: 1000
next table: 1635
cur table: 1637
epoch: 1000
next table: 2018
cur table: 2017
epoch: 1000
next table: 1636
cur table: 1635
epoch: 1000
next table: 2019
cur table: 2018
epoch: 1000
next table: 1631
cur table: 1636
epoch: 1000
next table: 2020
cur table: 2019
epoch: 1000
next table: 1635
cur table: 1631
epoch: 1000
next table: 2017
cur table: 2020
epoch: 1000
next table: 1634
cur table: 1635
epoch: 1000
next table: 2018
cur table: 2017
epoch: 1000
next table: 1637
cur table: 1634
epoch: 1000
next table: 2018
cur table: 2018
epoch: 1000
next table: 1629
cur table: 1637
epoch: 1000
next table: 2018
cur table: 2018
epoch: 1000
next table: 1635
cur table: 1629
epoch: 1000
next table: 2020
cur table: 2018
epoch: 1000
next table: 1637
cur table: 1635
epoch: 1000
next table: 2017
cur table: 2020
epoch: 1000
next table: 1636
cur table: 1637
epoch: 1000
next table: 2019
cur table: 2017
epoch: 1000
next table: 1640
cur table: 1636
epoch: 1000
next table: 2018
cur table: 2019
epoch: 1000
next table: 1633
cur table: 1640
epoch: 1000
next table: 2019
cur table: 2018
epoch: 1000
next table: 1633
cur table: 1633
epoch: 1000
next table: 2018
cur table: 2019
epoch: 1000
next table: 1635
cur table: 1633
epoch: 1000
next table: 2017
cur table: 2018
epoch: 1000
next table: 1636
cur table: 1635
epoch: 1000
next table: 2019
cur table: 2017
epoch: 1000
next table: 1633
cur table: 1636
epoch: 1000
next table: 2019
cur table: 2019
epoch: 1000
next table: 1635
cur table: 1633
epoch: 1000
next table: 2018
cur table: 2019
epoch: 1000
next table: 1633
cur table: 1635
epoch: 1000
next table: 2016
cur table: 2018
epoch: 1000
next table: 1641
cur table: 1633
epoch: 1000
next table: 2019
cur table: 2016
epoch: 1000
next table: 1630
cur table: 1641
epoch: 1000
next table: 2019
cur table: 2019
epoch: 1000
next table: 1634
cur table: 1630
epoch: 1000
next table: 2018
cur table: 2019
epoch: 1000
next table: 1636
cur table: 1634
epoch: 1000
next table: 2019
cur table: 2018
epoch: 1000
next table: 1640
cur table: 1636
epoch: 1000
next table: 2018
cur table: 2019
epoch: 1000
next table: 1627
cur table: 1640
epoch: 1000
next table: 2018
cur table: 2018
epoch: 1000
next table: 1634
cur table: 1627
epoch: 1000
next table: 2018
cur table: 2018
epoch: 1000
next table: 1634
cur table: 1634
epoch: 1000
next table: 2018
cur table: 2018
epoch: 1000
next table: 1640
cur table: 1634
epoch: 1000
next table: 2017
cur table: 2018
epoch: 1000
next table: 1629
cur table: 1640
epoch: 1000
next table: 2019
cur table: 2017
epoch: 1000
next table: 1634
cur table: 1629
epoch: 1000
next table: 2017
cur table: 2019
epoch: 1000
next table: 1637
cur table: 1634
epoch: 1000
next table: 2019
cur table: 2017
epoch: 1000
next table: 1637
cur table: 1637
epoch: 1000
next table: 2019
cur table: 2019
epoch: 1000
next table: 1631
cur table: 1637
epoch: 1000
next table: 2018
cur table: 2019
epoch: 1000
next table: 1637
cur table: 1631
epoch: 1000
next table: 2016
cur table: 2018
epoch: 1000
next table: 1634
cur table: 1637
epoch: 1000
next table: 2018
cur table: 2016
epoch: 1000
next table: 1633
cur table: 1634
epoch: 1000
next table: 2019
cur table: 2018
epoch: 1000
next table: 1636
cur table: 1633
epoch: 1000
next table: 2019
cur table: 2019
epoch: 1000
next table: 1637
cur table: 1636
epoch: 1000
next table: 2020
cur table: 2019
epoch: 1000
next table: 1639
cur table: 1637
epoch: 1000
next table: 2016
cur table: 2020
epoch: 1000
next table: 1636
cur table: 1639
epoch: 1000
next table: 2018
cur table: 2016
epoch: 1000
next table: 1633
cur table: 1636
epoch: 1000
next table: 2018
cur table: 2018
epoch: 1000
next table: 1625
cur table: 1633
epoch: 1000
next table: 2018
cur table: 2018
epoch: 1000
next table: 1636
cur table: 1625
epoch: 1000
next table: 2016
cur table: 2018
epoch: 1000
next table: 1641
cur table: 1636
epoch: 1000
next table: 2020
cur table: 2016
epoch: 1000
next table: 1627
cur table: 1641
epoch: 1000
next table: 2019
cur table: 2020
epoch: 1000
next table: 1637
cur table: 1627
epoch: 1000
next table: 2018
cur table: 2019
epoch: 1000
next table: 1634
cur table: 1637
epoch: 1000
next table: 2016
cur table: 2018
epoch: 1000
next table: 1640
cur table: 1634
epoch: 1000
next table: 2019
cur table: 2016
epoch: 1000
next table: 1629
cur table: 1640
epoch: 1000
next table: 2019
cur table: 2019
epoch: 1000
next table: 1635
cur table: 1629
epoch: 1000
next table: 2019
cur table: 2019
epoch: 1000
next table: 1634
cur table: 1635
epoch: 1000
next table: 2018
cur table: 2019
epoch: 1000
next table: 1639
cur table: 1634
epoch: 1000
next table: 2016
cur table: 2018
epoch: 1000
next table: 1629
cur table: 1639
epoch: 1000
next table: 2019
cur table: 2016
epoch: 1000
next table: 1633
cur table: 1629
epoch: 1000
next table: 2019
cur table: 2019
epoch: 1000
next table: 1635
cur table: 1633
epoch: 1000
next table: 2018
cur table: 2019
epoch: 1000
next table: 1641
cur table: 1635
epoch: 1000
next table: 2018
cur table: 2018
epoch: 1000
next table: 1631
cur table: 1641
epoch: 1000
next table: 2019
cur table: 2018
epoch: 1000
next table: 1636
cur table: 1631
epoch: 1000
next table: 2017
cur table: 2019
epoch: 1000
next table: 1636
cur table: 1636
epoch: 1000
next table: 2018
cur table: 2017
epoch: 1000
next table: 1635
cur table: 1636
epoch: 1000
next table: 2018
cur table: 2018
epoch: 1000
next table: 1631
cur table: 1635
epoch: 1000
next table: 2018
cur table: 2018
epoch: 1000
next table: 1635
cur table: 1631
epoch: 1000
next table: 2019
cur table: 2018
epoch: 1000
next table: 1636
cur table: 1635
epoch: 1000
next table: 2017
cur table: 2019
epoch: 1000
next table: 1634
cur table: 1636
epoch: 1000
next table: 2019
cur table: 2017
epoch: 1000
next table: 1639
cur table: 1634
epoch: 1000
next table: 2019
cur table: 2019
epoch: 1000
next table: 1632
cur table: 1639
epoch: 1000
next table: 2019
cur table: 2019
epoch: 1000
next table: 1636
cur table: 1632
epoch: 1000
next table: 2017
cur table: 2019
epoch: 1000
next table: 1633
cur table: 1636
epoch: 1000
next table: 2017
cur table: 2017
epoch: 1000
next table: 1638
cur table: 1633
epoch: 1000
next table: 2019
cur table: 2017
epoch: 1000
next table: 1635
cur table: 1638
epoch: 1000
next table: 2019
cur table: 2019
epoch: 1000
next table: 1634
cur table: 1635
epoch: 1000
next table: 2019
cur table: 2019
epoch: 1000
next table: 1633
cur table: 1634
epoch: 1000
next table: 2019
cur table: 2019
epoch: 1000
next table: 1643
cur table: 1633
epoch: 1000
next table: 2018
cur table: 2019
epoch: 1000
next table: 1628
cur table: 1643
epoch: 1000
next table: 2018
cur table: 2018
epoch: 1000
next table: 1634
cur table: 1628
epoch: 1000
next table: 2018
cur table: 2018
epoch: 1000
next table: 1633
cur table: 1634
epoch: 1000
next table: 2017
cur table: 2018
epoch: 1000
next table: 1642
cur table: 1633
epoch: 1000
next table: 2018
cur table: 2017
epoch: 1000
next table: 1631
cur table: 1642
epoch: 1000
next table: 2019
cur table: 2018
epoch: 1000
next table: 1636
cur table: 1631
epoch: 1000
next table: 2018
cur table: 2019
epoch: 1000
next table: 1635
cur table: 1636
epoch: 1000
next table: 2018
cur table: 2018
epoch: 1000
next table: 1637
cur table: 1635
epoch: 1000
next table: 2018
cur table: 2018
epoch: 1000
next table: 1630
cur table: 1637
epoch: 1000
next table: 2020
cur table: 2018
epoch: 1000
next table: 1633
cur table: 1630
epoch: 1000
next table: 2019
cur table: 2020
epoch: 1000
next table: 1634
cur table: 1633
epoch: 1000
next table: 2017
cur table: 2019
epoch: 1000
next table: 1635
cur table: 1634
epoch: 1000
next table: 2017
cur table: 2017
epoch: 1000
next table: 1630
cur table: 1635
epoch: 1000
next table: 2018
cur table: 2017
epoch: 1000
next table: 1635
cur table: 1630
epoch: 1000
next table: 2019
cur table: 2018
epoch: 1000
next table: 1637
cur table: 1635
epoch: 1000
next table: 2018
cur table: 2019
epoch: 1000
next table: 1634
cur table: 1637
epoch: 1000
next table: 2018
cur table: 2018
epoch: 1000
next table: 1635
cur table: 1634
epoch: 1000
next table: 2019
cur table: 2018
epoch: 1000
next table: 1637
cur table: 1635
epoch: 1000
next table: 2017
cur table: 2019
epoch: 1000
next table: 1634
cur table: 1637
epoch: 1000
next table: 2020
cur table: 2017
epoch: 1000
next table: 1635
cur table: 1634
epoch: 1000
next table: 2017
cur table: 2020
epoch: 1000
next table: 1635
cur table: 1635
epoch: 1000
next table: 2019
cur table: 2017
epoch: 1000
next table: 1633
cur table: 1635
epoch: 1000
next table: 2018
cur table: 2019
epoch: 1000
next table: 1636
cur table: 1633
epoch: 1000
next table: 2019
cur table: 2018
epoch: 1000
next table: 1635
cur table: 1636
epoch: 1000
next table: 2015
cur table: 2019
epoch: 1000
next table: 1639
cur table: 1635
epoch: 1000
next table: 2019
cur table: 2015
epoch: 1000
next table: 1633
cur table: 1639
epoch: 1000
next table: 2019
cur table: 2019
epoch: 1000
next table: 1634
cur table: 1633
epoch: 1000
next table: 2018
cur table: 2019
epoch: 1000
next table: 1636
cur table: 1634
epoch: 1000
next table: 2019
cur table: 2018
epoch: 1000
next table: 1638
cur table: 1636
epoch: 1000
next table: 2019
cur table: 2019
epoch: 1000
next table: 1629
cur table: 1638
epoch: 1000
next table: 2018
cur table: 2019
epoch: 1000
next table: 1637
cur table: 1629
epoch: 1000
next table: 2018
cur table: 2018
epoch: 1000
next table: 1635
cur table: 1637
epoch: 1000
next table: 2019
cur table: 2018
epoch: 1000
next table: 1643
cur table: 1635
epoch: 1000
next table: 2017
cur table: 2019
epoch: 1000
next table: 1627
cur table: 1643
epoch: 1000
next table: 2019
cur table: 2017
epoch: 1000
next table: 1638
cur table: 1627
epoch: 1000
next table: 2014
cur table: 2019
epoch: 1000
next table: 1705
cur table: 1638
epoch: 1000
next table: 2037
cur table: 2014
epoch: 1000
next table: 1581
cur table: 1705
epoch: 1000
next table: 2015
cur table: 2037
epoch: 1000
next table: 1474
cur table: 1581
epoch: 1000
next table: 2009
cur table: 2015
epoch: 1000
next table: 1495
cur table: 1474
epoch: 1000
next table: 2011
cur table: 2009
epoch: 1000
next table: 1494
cur table: 1495
epoch: 1000
next table: 2015
cur table: 2011
epoch: 1000
next table: 1472
cur table: 1494
epoch: 1000
next table: 2011
cur table: 2015
epoch: 1000
next table: 1488
cur table: 1472
epoch: 1000
next table: 1479
cur table: 1488
epoch: 1000
next table: 2019
cur table: 2011
epoch: 1000
next table: 1471
cur table: 1479
epoch: 1000
next table: 2008
cur table: 2019
epoch: 1000
next table: 1491
cur table: 1471
epoch: 1000
next table: 2014
cur table: 2008
epoch: 1000
next table: 1478
cur table: 1491
epoch: 1000
next table: 2012
cur table: 2014
epoch: 1000
next table: 1475
cur table: 1478
epoch: 1000
next table: 2011
cur table: 2012
epoch: 1000
next table: 1491
cur table: 1475
epoch: 1000
next table: 2012
cur table: 2011
epoch: 1000
next table: 1478
cur table: 1491
epoch: 1000
next table: 2014
cur table: 2012
epoch: 1000
next table: 1484
cur table: 1478
epoch: 1000
next table: 2010
cur table: 2014
epoch: 1000
next table: 1477
cur table: 1484
epoch: 1000
next table: 2016
cur table: 2010
epoch: 1000
next table: 1485
cur table: 1477
epoch: 1000
next table: 2008
cur table: 2016
epoch: 1000
next table: 1502
cur table: 1485
epoch: 1000
next table: 2011
cur table: 2008
epoch: 1000
next table: 1512
cur table: 1502
epoch: 1000
next table: 2014
cur table: 2011
epoch: 1000
next table: 1485
cur table: 1512
epoch: 1000
next table: 2011
cur table: 2014
epoch: 1000
next table: 1474
cur table: 1485
epoch: 1000
next table: 1480
cur table: 1474
epoch: 1000
next table: 2012
cur table: 2011
epoch: 1000
next table: 1483
cur table: 1480
epoch: 1000
next table: 2013
cur table: 2012
epoch: 1000
next table: 1472
cur table: 1483
epoch: 1000
next table: 2014
cur table: 2013
epoch: 1000
next table: 1485
cur table: 1472
epoch: 1000
next table: 2009
cur table: 2014
epoch: 1000
next table: 1483
cur table: 1485
epoch: 1000
next table: 2016
cur table: 2009
epoch: 1000
next table: 1470
cur table: 1483
epoch: 1000
next table: 2011
cur table: 2016
epoch: 1000
next table: 1482
cur table: 1470
epoch: 1000
next table: 2015
cur table: 2011
epoch: 1000
next table: 1486
cur table: 1482
epoch: 1000
next table: 2009
cur table: 2015
epoch: 1000
next table: 1473
cur table: 1486
epoch: 1000
next table: 2012
cur table: 2009
epoch: 1000
next table: 1479
cur table: 1473
epoch: 1000
next table: 2013
cur table: 2012
epoch: 1000
next table: 1479
cur table: 1479
epoch: 1000
next table: 2011
cur table: 2013
epoch: 1000
next table: 1476
cur table: 1479
epoch: 1000
next table: 1472
cur table: 1476
epoch: 1000
next table: 2010
cur table: 2011
epoch: 1000
next table: 1484
cur table: 1472
epoch: 1000
next table: 2015
cur table: 2010
epoch: 1000
next table: 1496
cur table: 1484
epoch: 1000
next table: 2009
cur table: 2015
epoch: 1000
next table: 1509
cur table: 1496
epoch: 1000
next table: 2011
cur table: 2009
epoch: 1000
next table: 1496
cur table: 1509
epoch: 1000
next table: 2014
cur table: 2011
epoch: 1000
next table: 1479
cur table: 1496
epoch: 1000
next table: 2010
cur table: 2014
epoch: 1000
next table: 1484
cur table: 1479
epoch: 1000
next table: 2010
cur table: 2010
epoch: 1000
next table: 1476
cur table: 1484
epoch: 1000
next table: 2007
cur table: 2010
epoch: 1000
next table: 1482
cur table: 1476
epoch: 1000
next table: 2012
cur table: 2007
epoch: 1000
next table: 1478
cur table: 1482
epoch: 1000
next table: 2011
cur table: 2012
epoch: 1000
next table: 1481
cur table: 1478
epoch: 1000
next table: 2014
cur table: 2011
epoch: 1000
next table: 1486
cur table: 1481
epoch: 1000
next table: 2013
cur table: 2014
epoch: 1000
next table: 1475
cur table: 1486
epoch: 1000
next table: 1480
cur table: 1475
epoch: 1000
next table: 2011
cur table: 2013
epoch: 1000
next table: 1482
cur table: 1480
epoch: 1000
next table: 2014
cur table: 2011
epoch: 1000
next table: 1478
cur table: 1482
epoch: 1000
next table: 2015
cur table: 2014
epoch: 1000
next table: 1479
cur table: 1478
epoch: 1000
next table: 2012
cur table: 2015
epoch: 1000
next table: 1483
cur table: 1479
epoch: 1000
next table: 2016
cur table: 2012
epoch: 1000
next table: 1480
cur table: 1483
epoch: 1000
next table: 2010
cur table: 2016
epoch: 1000
next table: 1481
cur table: 1480
epoch: 1000
next table: 2017
cur table: 2010
epoch: 1000
next table: 1489
cur table: 1481
epoch: 1000
next table: 2011
cur table: 2017
epoch: 1000
next table: 1504
cur table: 1489
epoch: 1000
next table: 2018
cur table: 2011
epoch: 1000
next table: 1505
cur table: 1504
epoch: 1000
next table: 2010
cur table: 2018
epoch: 1000
next table: 1476
cur table: 1505
epoch: 1000
next table: 2012
cur table: 2010
epoch: 1000
next table: 1480
cur table: 1476
epoch: 1000
next table: 2012
cur table: 2012
epoch: 1000
next table: 1478
cur table: 1480
epoch: 1000
next table: 2014
cur table: 2012
epoch: 1000
next table: 1486
cur table: 1478
epoch: 1000
next table: 1479
cur table: 1486
epoch: 1000
next table: 2012
cur table: 2014
epoch: 1000
next table: 1474
cur table: 1479
epoch: 1000
next table: 2013
cur table: 2012
epoch: 1000
next table: 1483
cur table: 1474
epoch: 1000
next table: 2016
cur table: 2013
epoch: 1000
next table: 1485
cur table: 1483
epoch: 1000
next table: 2011
cur table: 2016
epoch: 1000
next table: 1468
cur table: 1485
epoch: 1000
next table: 2011
cur table: 2011
epoch: 1000
next table: 1485
cur table: 1468
epoch: 1000
next table: 2013
cur table: 2011
epoch: 1000
next table: 1483
cur table: 1485
epoch: 1000
next table: 2008
cur table: 2013
epoch: 1000
next table: 1477
cur table: 1483
epoch: 1000
next table: 2012
cur table: 2008
epoch: 1000
next table: 1478
cur table: 1477
epoch: 1000
next table: 2015
cur table: 2012
epoch: 1000
next table: 1486
cur table: 1478
epoch: 1000
next table: 2011
cur table: 2015
epoch: 1000
next table: 1482
cur table: 1486
epoch: 1000
next table: 2015
cur table: 2011
epoch: 1000
next table: 1484
cur table: 1482
epoch: 1000
next table: 2010
cur table: 2015
epoch: 1000
next table: 1496
cur table: 1484
epoch: 1000
next table: 1510
cur table: 1496
epoch: 1000
next table: 2010
cur table: 2010
epoch: 1000
next table: 1486
cur table: 1510
epoch: 1000
next table: 2014
cur table: 2010
epoch: 1000
next table: 1473
cur table: 1486
epoch: 1000
next table: 2012
cur table: 2014
epoch: 1000
next table: 1476
cur table: 1473
epoch: 1000
next table: 2010
cur table: 2012
epoch: 1000
next table: 1488
cur table: 1476
epoch: 1000
next table: 2012
cur table: 2010
epoch: 1000
next table: 1476
cur table: 1488
epoch: 1000
next table: 2010
cur table: 2012
epoch: 1000
next table: 1478
cur table: 1476
epoch: 1000
next table: 2015
cur table: 2010
epoch: 1000
next table: 1488
cur table: 1478
epoch: 1000
next table: 2011
cur table: 2015
epoch: 1000
next table: 1473
cur table: 1488
epoch: 1000
next table: 2012
cur table: 2011
epoch: 1000
next table: 1485
cur table: 1473
epoch: 1000
next table: 2013
cur table: 2012
epoch: 1000
next table: 1480
cur table: 1485
epoch: 1000
next table: 2010
cur table: 2013
epoch: 1000
next table: 1474
cur table: 1480
epoch: 1000
next table: 2014
cur table: 2010
epoch: 1000
next table: 1485
cur table: 1474
epoch: 1000
next table: 1477
cur table: 1485
epoch: 1000
next table: 2011
cur table: 2014
epoch: 1000
next table: 1474
cur table: 1477
epoch: 1000
next table: 2013
cur table: 2011
epoch: 1000
next table: 1480
cur table: 1474
epoch: 1000
next table: 2013
cur table: 2013
epoch: 1000
next table: 1480
cur table: 1480
epoch: 1000
next table: 2010
cur table: 2013
epoch: 1000
next table: 1494
cur table: 1480
epoch: 1000
next table: 2015
cur table: 2010
epoch: 1000
next table: 1510
cur table: 1494
epoch: 1000
next table: 2013
cur table: 2015
epoch: 1000
next table: 1500
cur table: 1510
epoch: 1000
next table: 2012
cur table: 2013
epoch: 1000
next table: 1465
cur table: 1500
epoch: 1000
next table: 2010
cur table: 2012
epoch: 1000
next table: 1479
cur table: 1465
epoch: 1000
next table: 2011
cur table: 2010
epoch: 1000
next table: 1494
cur table: 1479
epoch: 1000
next table: 2009
cur table: 2011
epoch: 1000
next table: 1471
cur table: 1494
epoch: 1000
next table: 2013
cur table: 2009
epoch: 1000
next table: 1477
cur table: 1471
epoch: 1000
next table: 2011
cur table: 2013
epoch: 1000
next table: 1484
cur table: 1477
epoch: 1000
next table: 1472
cur table: 1484
epoch: 1000
next table: 2013
cur table: 2011
epoch: 1000
next table: 1479
cur table: 1472
epoch: 1000
next table: 2014
cur table: 2013
epoch: 1000
next table: 1480
cur table: 1479
epoch: 1000
next table: 2012
cur table: 2014
epoch: 1000
next table: 1472
cur table: 1480
epoch: 1000
next table: 2016
cur table: 2012
epoch: 1000
next table: 1483
cur table: 1472
epoch: 1000
next table: 2017
cur table: 2016
epoch: 1000
next table: 1485
cur table: 1483
epoch: 1000
next table: 2006
cur table: 2017
epoch: 1000
next table: 1473
cur table: 1485
epoch: 1000
next table: 2018
cur table: 2006
epoch: 1000
next table: 1477
cur table: 1473
epoch: 1000
next table: 2011
cur table: 2018
epoch: 1000
next table: 1480
cur table: 1477
epoch: 1000
next table: 2012
cur table: 2011
epoch: 1000
next table: 1486
cur table: 1480
epoch: 1000
next table: 2017
cur table: 2012
epoch: 1000
next table: 1502
cur table: 1486
epoch: 1000
next table: 2014
cur table: 2017
epoch: 1000
next table: 1508
cur table: 1502
epoch: 1000
next table: 2011
cur table: 2014
epoch: 1000
next table: 1495
cur table: 1508
epoch: 1000
next table: 2010
cur table: 2011
epoch: 1000
next table: 1455
cur table: 1495
epoch: 1000
next table: 1462
cur table: 1455
epoch: 1000
next table: 2014
cur table: 2010
epoch: 1000
next table: 1448
cur table: 1462
epoch: 1000
next table: 2009
cur table: 2014
epoch: 1000
next table: 1449
cur table: 1448
epoch: 1000
next table: 2012
cur table: 2009
epoch: 1000
next table: 1448
cur table: 1449
epoch: 1000
next table: 2011
cur table: 2012
epoch: 1000
next table: 1454
cur table: 1448
epoch: 1000
next table: 2009
cur table: 2011
epoch: 1000
next table: 1452
cur table: 1454
epoch: 1000
next table: 2016
cur table: 2009
epoch: 1000
next table: 1451
cur table: 1452
epoch: 1000
next table: 2012
cur table: 2016
epoch: 1000
next table: 1459
cur table: 1451
epoch: 1000
next table: 2011
cur table: 2012
epoch: 1000
next table: 1449
cur table: 1459
epoch: 1000
next table: 2010
cur table: 2011
epoch: 1000
next table: 1447
cur table: 1449
epoch: 1000
next table: 2015
cur table: 2010
epoch: 1000
next table: 1466
cur table: 1447
epoch: 1000
next table: 2016
cur table: 2015
epoch: 1000
next table: 1451
cur table: 1466
epoch: 1000
next table: 2010
cur table: 2016
epoch: 1000
next table: 1457
cur table: 1451
epoch: 1000
next table: 2013
cur table: 2010
epoch: 1000
next table: 1453
cur table: 1457
epoch: 1000
next table: 2012
cur table: 2013
epoch: 1000
next table: 1458
cur table: 1453
epoch: 1000
next table: 2010
cur table: 2012
epoch: 1000
next table: 1463
cur table: 1458
epoch: 1000
next table: 2010
cur table: 2010
epoch: 1000
next table: 1446
cur table: 1463
epoch: 1000
next table: 2018
cur table: 2010
epoch: 1000
next table: 1460
cur table: 1446
epoch: 1000
next table: 2014
cur table: 2018
epoch: 1000
next table: 1451
cur table: 1460
epoch: 1000
next table: 2015
cur table: 2014
epoch: 1000
next table: 1462
cur table: 1451
epoch: 1000
next table: 1476
cur table: 1462
epoch: 1000
next table: 2012
cur table: 2015
epoch: 1000
next table: 1476
cur table: 1476
epoch: 1000
next table: 2013
cur table: 2012
epoch: 1000
next table: 1458
cur table: 1476
epoch: 1000
next table: 2015
cur table: 2013
epoch: 1000
next table: 1465
cur table: 1458
epoch: 1000
next table: 2014
cur table: 2015
epoch: 1000
next table: 1456
cur table: 1465
epoch: 1000
next table: 2012
cur table: 2014
epoch: 1000
next table: 1453
cur table: 1456
epoch: 1000
next table: 2012
cur table: 2012
epoch: 1000
next table: 1454
cur table: 1453
epoch: 1000
next table: 2010
cur table: 2012
epoch: 1000
next table: 1448
cur table: 1454
epoch: 1000
next table: 2011
cur table: 2010
epoch: 1000
next table: 1451
cur table: 1448
epoch: 1000
next table: 2010
cur table: 2011
epoch: 1000
next table: 1465
cur table: 1451
epoch: 1000
next table: 2013
cur table: 2010
epoch: 1000
next table: 1446
cur table: 1465
epoch: 1000
next table: 2015
cur table: 2013
epoch: 1000
next table: 1446
cur table: 1446
epoch: 1000
next table: 2015
cur table: 2015
epoch: 1000
next table: 1454
cur table: 1446
epoch: 1000
next table: 2012
cur table: 2015
epoch: 1000
next table: 1458
cur table: 1454
epoch: 1000
next table: 2011
cur table: 2012
epoch: 1000
next table: 1453
cur table: 1458
epoch: 1000
next table: 2014
cur table: 2011
epoch: 1000
next table: 1460
cur table: 1453
epoch: 1000
next table: 2009
cur table: 2014
epoch: 1000
next table: 1450
cur table: 1460
epoch: 1000
next table: 2010
cur table: 2009
epoch: 1000
next table: 1458
cur table: 1450
epoch: 1000
next table: 2015
cur table: 2010
epoch: 1000
next table: 1459
cur table: 1458
epoch: 1000
next table: 2011
cur table: 2015
epoch: 1000
next table: 1458
cur table: 1459
epoch: 1000
next table: 2008
cur table: 2011
epoch: 1000
next table: 1449
cur table: 1458
epoch: 1000
next table: 1463
cur table: 1449
epoch: 1000
next table: 2018
cur table: 2008
epoch: 1000
next table: 1452
cur table: 1463
epoch: 1000
next table: 2014
cur table: 2018
epoch: 1000
next table: 1473
cur table: 1452
epoch: 1000
next table: 2012
cur table: 2014
epoch: 1000
next table: 1480
cur table: 1473
epoch: 1000
next table: 2014
cur table: 2012
epoch: 1000
next table: 1463
cur table: 1480
epoch: 1000
next table: 2014
cur table: 2014
epoch: 1000
next table: 1451
cur table: 1463
epoch: 1000
next table: 2010
cur table: 2014
epoch: 1000
next table: 1463
cur table: 1451
epoch: 1000
next table: 2011
cur table: 2010
epoch: 1000
next table: 1450
cur table: 1463
epoch: 1000
next table: 2015
cur table: 2011
epoch: 1000
next table: 1447
cur table: 1450
epoch: 1000
next table: 2013
cur table: 2015
epoch: 1000
next table: 1450
cur table: 1447
epoch: 1000
next table: 2010
cur table: 2013
epoch: 1000
next table: 1443
cur table: 1450
epoch: 1000
next table: 2013
cur table: 2010
epoch: 1000
next table: 1456
cur table: 1443
epoch: 1000
next table: 2014
cur table: 2013
epoch: 1000
next table: 1453
cur table: 1456
epoch: 1000
next table: 2012
cur table: 2014
epoch: 1000
next table: 1448
cur table: 1453
epoch: 1000
next table: 2012
cur table: 2012
epoch: 1000
next table: 1462
cur table: 1448
epoch: 1000
next table: 2011
cur table: 2012
epoch: 1000
next table: 1452
cur table: 1462
epoch: 1000
next table: 2014
cur table: 2011
epoch: 1000
next table: 1458
cur table: 1452
epoch: 1000
next table: 2011
cur table: 2014
epoch: 1000
next table: 1458
cur table: 1458
epoch: 1000
next table: 2016
cur table: 2011
epoch: 1000
next table: 1450
cur table: 1458
epoch: 1000
next table: 2011
cur table: 2016
epoch: 1000
next table: 1455
cur table: 1450
epoch: 1000
next table: 2007
cur table: 2011
epoch: 1000
next table: 1464
cur table: 1455
Heartbeat CPU 0 instructions: 20000000 cycles: 7254456 heartbeat IPC: 2.86055 cumulative IPC: 2.75693 (Simulation time: 0 hr 5 min 23 sec) 
epoch: 1000
next table: 1451
cur table: 1464
epoch: 1000
next table: 2015
cur table: 2007
epoch: 1000
next table: 1453
cur table: 1451
epoch: 1000
next table: 2009
cur table: 2015
epoch: 1000
next table: 1456
cur table: 1453
epoch: 1000
next table: 2015
cur table: 2009
epoch: 1000
next table: 1462
cur table: 1456
epoch: 1000
next table: 2010
cur table: 2015
epoch: 1000
next table: 1456
cur table: 1462
epoch: 1000
next table: 2013
cur table: 2010
epoch: 1000
next table: 1471
cur table: 1456
epoch: 1000
next table: 2014
cur table: 2013
epoch: 1000
next table: 1465
cur table: 1471
epoch: 1000
next table: 2012
cur table: 2014
epoch: 1000
next table: 1470
cur table: 1465
epoch: 1000
next table: 2015
cur table: 2012
epoch: 1000
next table: 1459
cur table: 1470
epoch: 1000
next table: 2015
cur table: 2015
epoch: 1000
next table: 1460
cur table: 1459
epoch: 1000
next table: 2012
cur table: 2015
epoch: 1000
next table: 1454
cur table: 1460
epoch: 1000
next table: 2012
cur table: 2012
epoch: 1000
next table: 1455
cur table: 1454
epoch: 1000
next table: 2014
cur table: 2012
epoch: 1000
next table: 1445
cur table: 1455
epoch: 1000
next table: 2012
cur table: 2014
epoch: 1000
next table: 1458
cur table: 1445
epoch: 1000
next table: 2012
cur table: 2012
epoch: 1000
next table: 1456
cur table: 1458
epoch: 1000
next table: 2010
cur table: 2012
epoch: 1000
next table: 1441
cur table: 1456
epoch: 1000
next table: 2013
cur table: 2010
epoch: 1000
next table: 1464
cur table: 1441
epoch: 1000
next table: 2014
cur table: 2013
epoch: 1000
next table: 1452
cur table: 1464
epoch: 1000
next table: 2017
cur table: 2014
epoch: 1000
next table: 1445
cur table: 1452
epoch: 1000
next table: 2010
cur table: 2017
epoch: 1000
next table: 1458
cur table: 1445
epoch: 1000
next table: 2010
cur table: 2010
epoch: 1000
next table: 1453
cur table: 1458
epoch: 1000
next table: 1458
cur table: 1453
epoch: 1000
next table: 2012
cur table: 2010
epoch: 1000
next table: 1453
cur table: 1458
epoch: 1000
next table: 2012
cur table: 2012
epoch: 1000
next table: 1453
cur table: 1453
epoch: 1000
next table: 2012
cur table: 2012
epoch: 1000
next table: 1449
cur table: 1453
epoch: 1000
next table: 2016
cur table: 2012
epoch: 1000
next table: 1452
cur table: 1449
epoch: 1000
next table: 2012
cur table: 2016
epoch: 1000
next table: 1455
cur table: 1452
epoch: 1000
next table: 2013
cur table: 2012
epoch: 1000
next table: 1453
cur table: 1455
epoch: 1000
next table: 2010
cur table: 2013
epoch: 1000
next table: 1473
cur table: 1453
epoch: 1000
next table: 2013
cur table: 2010
epoch: 1000
next table: 1470
cur table: 1473
epoch: 1000
next table: 2013
cur table: 2013
epoch: 1000
next table: 1456
cur table: 1470
epoch: 1000
next table: 2017
cur table: 2013
epoch: 1000
next table: 1473
cur table: 1456
epoch: 1000
next table: 2012
cur table: 2017
epoch: 1000
next table: 1469
cur table: 1473
epoch: 1000
next table: 2010
cur table: 2012
epoch: 1000
next table: 1454
cur table: 1469
epoch: 1000
next table: 2015
cur table: 2010
epoch: 1000
next table: 1455
cur table: 1454
epoch: 1000
next table: 2011
cur table: 2015
epoch: 1000
next table: 1456
cur table: 1455
epoch: 1000
next table: 2014
cur table: 2011
epoch: 1000
next table: 1451
cur table: 1456
epoch: 1000
next table: 2012
cur table: 2014
epoch: 1000
next table: 1458
cur table: 1451
epoch: 1000
next table: 2017
cur table: 2012
epoch: 1000
next table: 1452
cur table: 1458
epoch: 1000
next table: 2008
cur table: 2017
epoch: 1000
next table: 1459
cur table: 1452
epoch: 1000
next table: 2013
cur table: 2008
epoch: 1000
next table: 1451
cur table: 1459
epoch: 1000
next table: 2014
cur table: 2013
epoch: 1000
next table: 1450
cur table: 1451
epoch: 1000
next table: 1461
cur table: 1450
epoch: 1000
next table: 2014
cur table: 2014
epoch: 1000
next table: 1462
cur table: 1461
epoch: 1000
next table: 2014
cur table: 2014
epoch: 1000
next table: 1472
cur table: 1462
epoch: 1000
next table: 2013
cur table: 2014
epoch: 1000
next table: 1459
cur table: 1472
epoch: 1000
next table: 2010
cur table: 2013
epoch: 1000
next table: 1459
cur table: 1459
epoch: 1000
next table: 2008
cur table: 2010
epoch: 1000
next table: 1449
cur table: 1459
epoch: 1000
next table: 2014
cur table: 2008
epoch: 1000
next table: 1452
cur table: 1449
epoch: 1000
next table: 2011
cur table: 2014
epoch: 1000
next table: 1456
cur table: 1452
epoch: 1000
next table: 2013
cur table: 2011
epoch: 1000
next table: 1455
cur table: 1456
epoch: 1000
next table: 2011
cur table: 2013
epoch: 1000
next table: 1460
cur table: 1455
epoch: 1000
next table: 2014
cur table: 2011
epoch: 1000
next table: 1483
cur table: 1460
epoch: 1000
next table: 2007
cur table: 2014
epoch: 1000
next table: 1465
cur table: 1483
epoch: 1000
next table: 2014
cur table: 2007
epoch: 1000
next table: 1468
cur table: 1465
epoch: 1000
next table: 2014
cur table: 2014
epoch: 1000
next table: 1453
cur table: 1468
epoch: 1000
next table: 2013
cur table: 2014
epoch: 1000
next table: 1443
cur table: 1453
epoch: 1000
next table: 2010
cur table: 2013
epoch: 1000
next table: 1451
cur table: 1443
epoch: 1000
next table: 2015
cur table: 2010
epoch: 1000
next table: 1457
cur table: 1451
epoch: 1000
next table: 2011
cur table: 2015
epoch: 1000
next table: 1448
cur table: 1457
epoch: 1000
next table: 2014
cur table: 2011
epoch: 1000
next table: 1453
cur table: 1448
epoch: 1000
next table: 2010
cur table: 2014
epoch: 1000
next table: 1448
cur table: 1453
epoch: 1000
next table: 2013
cur table: 2010
epoch: 1000
next table: 1446
cur table: 1448
epoch: 1000
next table: 1459
cur table: 1446
epoch: 1000
next table: 2011
cur table: 2013
epoch: 1000
next table: 1459
cur table: 1459
epoch: 1000
next table: 2014
cur table: 2011
epoch: 1000
next table: 1462
cur table: 1459
epoch: 1000
next table: 2012
cur table: 2014
epoch: 1000
next table: 1452
cur table: 1462
epoch: 1000
next table: 2010
cur table: 2012
epoch: 1000
next table: 1452
cur table: 1452
epoch: 1000
next table: 2013
cur table: 2010
epoch: 1000
next table: 1455
cur table: 1452
epoch: 1000
next table: 2015
cur table: 2013
epoch: 1000
next table: 1459
cur table: 1455
epoch: 1000
next table: 2015
cur table: 2015
epoch: 1000
next table: 1457
cur table: 1459
epoch: 1000
next table: 2011
cur table: 2015
epoch: 1000
next table: 1455
cur table: 1457
epoch: 1000
next table: 2014
cur table: 2011
epoch: 1000
next table: 1456
cur table: 1455
epoch: 1000
next table: 2011
cur table: 2014
epoch: 1000
next table: 1456
cur table: 1456
epoch: 1000
next table: 2010
cur table: 2011
epoch: 1000
next table: 1452
cur table: 1456
epoch: 1000
next table: 2012
cur table: 2010
epoch: 1000
next table: 1461
cur table: 1452
epoch: 1000
next table: 2015
cur table: 2012
epoch: 1000
next table: 1469
cur table: 1461
epoch: 1000
next table: 2017
cur table: 2015
epoch: 1000
next table: 1475
cur table: 1469
epoch: 1000
next table: 2011
cur table: 2017
epoch: 1000
next table: 1452
cur table: 1475
epoch: 1000
next table: 2009
cur table: 2011
epoch: 1000
next table: 1450
cur table: 1452
epoch: 1000
next table: 2013
cur table: 2009
epoch: 1000
next table: 1455
cur table: 1450
epoch: 1000
next table: 2013
cur table: 2013
epoch: 1000
next table: 1456
cur table: 1455
epoch: 1000
next table: 2011
cur table: 2013
epoch: 1000
next table: 1458
cur table: 1456
epoch: 1000
next table: 2012
cur table: 2011
epoch: 1000
next table: 1462
cur table: 1458
epoch: 1000
next table: 1451
cur table: 1462
epoch: 1000
next table: 2015
cur table: 2012
epoch: 1000
next table: 1462
cur table: 1451
epoch: 1000
next table: 2008
cur table: 2015
epoch: 1000
next table: 1457
cur table: 1462
epoch: 1000
next table: 2017
cur table: 2008
epoch: 1000
next table: 1465
cur table: 1457
epoch: 1000
next table: 2015
cur table: 2017
epoch: 1000
next table: 1467
cur table: 1465
epoch: 1000
next table: 2016
cur table: 2015
epoch: 1000
next table: 1465
cur table: 1467
epoch: 1000
next table: 2010
cur table: 2016
epoch: 1000
next table: 1444
cur table: 1465
epoch: 1000
next table: 2012
cur table: 2010
epoch: 1000
next table: 1465
cur table: 1444
epoch: 1000
next table: 2013
cur table: 2012
epoch: 1000
next table: 1461
cur table: 1465
epoch: 1000
next table: 2012
cur table: 2013
epoch: 1000
next table: 1451
cur table: 1461
epoch: 1000
next table: 2011
cur table: 2012
epoch: 1000
next table: 1457
cur table: 1451
epoch: 1000
next table: 2014
cur table: 2011
epoch: 1000
next table: 1457
cur table: 1457
epoch: 1000
next table: 2012
cur table: 2014
epoch: 1000
next table: 1446
cur table: 1457
epoch: 1000
next table: 2011
cur table: 2012
epoch: 1000
next table: 1454
cur table: 1446
epoch: 1000
next table: 2018
cur table: 2011
epoch: 1000
next table: 1461
cur table: 1454
epoch: 1000
next table: 2011
cur table: 2018
epoch: 1000
next table: 1460
cur table: 1461
epoch: 1000
next table: 2013
cur table: 2011
epoch: 1000
next table: 1475
cur table: 1460
epoch: 1000
next table: 2012
cur table: 2013
epoch: 1000
next table: 1473
cur table: 1475
epoch: 1000
next table: 2013
cur table: 2012
epoch: 1000
next table: 1466
cur table: 1473
epoch: 1000
next table: 2011
cur table: 2013
epoch: 1000
next table: 1450
cur table: 1466
epoch: 1000
next table: 2011
cur table: 2011
epoch: 1000
next table: 1457
cur table: 1450
epoch: 1000
next table: 2011
cur table: 2011
epoch: 1000
next table: 1456
cur table: 1457
epoch: 1000
next table: 1454
cur table: 1456
epoch: 1000
next table: 2011
cur table: 2011
epoch: 1000
next table: 1456
cur table: 1454
epoch: 1000
next table: 2011
cur table: 2011
epoch: 1000
next table: 1452
cur table: 1456
epoch: 1000
next table: 2017
cur table: 2011
epoch: 1000
next table: 1459
cur table: 1452
epoch: 1000
next table: 2011
cur table: 2017
epoch: 1000
next table: 1463
cur table: 1459
epoch: 1000
next table: 2016
cur table: 2011
epoch: 1000
next table: 1447
cur table: 1463
epoch: 1000
next table: 2011
cur table: 2016
epoch: 1000
next table: 1460
cur table: 1447
epoch: 1000
next table: 2013
cur table: 2011
epoch: 1000
next table: 1459
cur table: 1460
epoch: 1000
next table: 2012
cur table: 2013
epoch: 1000
next table: 1444
cur table: 1459
epoch: 1000
next table: 2011
cur table: 2012
epoch: 1000
next table: 1461
cur table: 1444
epoch: 1000
next table: 2014
cur table: 2011
epoch: 1000
next table: 1453
cur table: 1461
epoch: 1000
next table: 2017
cur table: 2014
epoch: 1000
next table: 1452
cur table: 1453
epoch: 1000
next table: 2010
cur table: 2017
epoch: 1000
next table: 1466
cur table: 1452
epoch: 1000
next table: 2014
cur table: 2010
epoch: 1000
next table: 1461
cur table: 1466
epoch: 1000
next table: 2014
cur table: 2014
epoch: 1000
next table: 1463
cur table: 1461
epoch: 1000
next table: 2017
cur table: 2014
epoch: 1000
next table: 1451
cur table: 1463
epoch: 1000
next table: 2012
cur table: 2017
epoch: 1000
next table: 1460
cur table: 1451
epoch: 1000
next table: 2015
cur table: 2012
epoch: 1000
next table: 1467
cur table: 1460
epoch: 1000
next table: 2009
cur table: 2015
epoch: 1000
next table: 1476
cur table: 1467
epoch: 1000
next table: 2017
cur table: 2009
epoch: 1000
next table: 1461
cur table: 1476
epoch: 1000
next table: 2013
cur table: 2017
epoch: 1000
next table: 1449
cur table: 1461
epoch: 1000
next table: 1453
cur table: 1449
epoch: 1000
next table: 2013
cur table: 2013
epoch: 1000
next table: 1449
cur table: 1453
epoch: 1000
next table: 2013
cur table: 2013
epoch: 1000
next table: 1452
cur table: 1449
epoch: 1000
next table: 2011
cur table: 2013
epoch: 1000
next table: 1444
cur table: 1452
epoch: 1000
next table: 2013
cur table: 2011
epoch: 1000
next table: 1466
cur table: 1444
epoch: 1000
next table: 2012
cur table: 2013
epoch: 1000
next table: 1452
cur table: 1466
epoch: 1000
next table: 2014
cur table: 2012
epoch: 1000
next table: 1451
cur table: 1452
epoch: 1000
next table: 2010
cur table: 2014
epoch: 1000
next table: 1466
cur table: 1451
epoch: 1000
next table: 2016
cur table: 2010
epoch: 1000
next table: 1454
cur table: 1466
epoch: 1000
next table: 2014
cur table: 2016
epoch: 1000
next table: 1455
cur table: 1454
epoch: 1000
next table: 2015
cur table: 2014
epoch: 1000
next table: 1469
cur table: 1455
epoch: 1000
next table: 2009
cur table: 2015
epoch: 1000
next table: 1461
cur table: 1469
epoch: 1000
next table: 2017
cur table: 2009
epoch: 1000
next table: 1453
cur table: 1461
epoch: 1000
next table: 2011
cur table: 2017
epoch: 1000
next table: 1464
cur table: 1453
epoch: 1000
next table: 2013
cur table: 2011
epoch: 1000
next table: 1452
cur table: 1464
epoch: 1000
next table: 2013
cur table: 2013
epoch: 1000
next table: 1460
cur table: 1452
epoch: 1000
next table: 2016
cur table: 2013
epoch: 1000
next table: 1459
cur table: 1460
epoch: 1000
next table: 2011
cur table: 2016
epoch: 1000
next table: 1456
cur table: 1459
epoch: 1000
next table: 2010
cur table: 2011
epoch: 1000
next table: 1463
cur table: 1456
epoch: 1000
next table: 2015
cur table: 2010
epoch: 1000
next table: 1463
cur table: 1463
epoch: 1000
next table: 2012
cur table: 2015
epoch: 1000
next table: 1472
cur table: 1463
epoch: 1000
next table: 2014
cur table: 2012
epoch: 1000
next table: 1469
cur table: 1472
epoch: 1000
next table: 1456
cur table: 1469
epoch: 1000
next table: 2018
cur table: 2014
epoch: 1000
next table: 1460
cur table: 1456
epoch: 1000
next table: 2013
cur table: 2018
epoch: 1000
next table: 1453
cur table: 1460
epoch: 1000
next table: 2012
cur table: 2013
epoch: 1000
next table: 1454
cur table: 1453
epoch: 1000
next table: 2013
cur table: 2012
epoch: 1000
next table: 1450
cur table: 1454
epoch: 1000
next table: 2012
cur table: 2013
epoch: 1000
next table: 1455
cur table: 1450
epoch: 1000
next table: 2013
cur table: 2012
epoch: 1000
next table: 1465
cur table: 1455
epoch: 1000
next table: 2015
cur table: 2013
epoch: 1000
next table: 1452
cur table: 1465
epoch: 1000
next table: 2014
cur table: 2015
epoch: 1000
next table: 1460
cur table: 1452
epoch: 1000
next table: 2012
cur table: 2014
epoch: 1000
next table: 1455
cur table: 1460
epoch: 1000
next table: 2010
cur table: 2012
epoch: 1000
next table: 1454
cur table: 1455
epoch: 1000
next table: 2012
cur table: 2010
epoch: 1000
next table: 1462
cur table: 1454
epoch: 1000
next table: 2013
cur table: 2012
epoch: 1000
next table: 1458
cur table: 1462
epoch: 1000
next table: 2008
cur table: 2013
epoch: 1000
next table: 1460
cur table: 1458
epoch: 1000
next table: 2018
cur table: 2008
epoch: 1000
next table: 1449
cur table: 1460
epoch: 1000
next table: 2013
cur table: 2018
epoch: 1000
next table: 1456
cur table: 1449
epoch: 1000
next table: 2010
cur table: 2013
epoch: 1000
next table: 1459
cur table: 1456
epoch: 1000
next table: 2014
cur table: 2010
epoch: 1000
next table: 1450
cur table: 1459
epoch: 1000
next table: 2012
cur table: 2014
epoch: 1000
next table: 1453
cur table: 1450
epoch: 1000
next table: 2012
cur table: 2012
epoch: 1000
next table: 1455
cur table: 1453
epoch: 1000
next table: 1449
cur table: 1455
epoch: 1000
next table: 2017
cur table: 2012
epoch: 1000
next table: 1469
cur table: 1449
epoch: 1000
next table: 2009
cur table: 2017
epoch: 1000
next table: 1468
cur table: 1469
epoch: 1000
next table: 2009
cur table: 2009
epoch: 1000
next table: 1464
cur table: 1468
epoch: 1000
next table: 2011
cur table: 2009
epoch: 1000
next table: 1460
cur table: 1464
epoch: 1000
next table: 2014
cur table: 2011
epoch: 1000
next table: 1458
cur table: 1460
epoch: 1000
next table: 2009
cur table: 2014
epoch: 1000
next table: 1448
cur table: 1458
epoch: 1000
next table: 2019
cur table: 2009
epoch: 1000
next table: 1463
cur table: 1448
epoch: 1000
next table: 2014
cur table: 2019
epoch: 1000
next table: 1450
cur table: 1463
epoch: 1000
next table: 2014
cur table: 2014
epoch: 1000
next table: 1452
cur table: 1450
epoch: 1000
next table: 2011
cur table: 2014
epoch: 1000
next table: 1466
cur table: 1452
epoch: 1000
next table: 2012
cur table: 2011
epoch: 1000
next table: 1453
cur table: 1466
epoch: 1000
next table: 2013
cur table: 2012
epoch: 1000
next table: 1459
cur table: 1453
epoch: 1000
next table: 2015
cur table: 2013
epoch: 1000
next table: 1451
cur table: 1459
epoch: 1000
next table: 2012
cur table: 2015
epoch: 1000
next table: 1452
cur table: 1451
epoch: 1000
next table: 2014
cur table: 2012
epoch: 1000
next table: 1451
cur table: 1452
epoch: 1000
next table: 2011
cur table: 2014
epoch: 1000
next table: 1452
cur table: 1451
epoch: 1000
next table: 2011
cur table: 2011
epoch: 1000
next table: 1456
cur table: 1452
epoch: 1000
next table: 2014
cur table: 2011
epoch: 1000
next table: 1453
cur table: 1456
epoch: 1000
next table: 2011
cur table: 2014
epoch: 1000
next table: 1462
cur table: 1453
epoch: 1000
next table: 2016
cur table: 2011
epoch: 1000
next table: 1455
cur table: 1462
epoch: 1000
next table: 2013
cur table: 2016
epoch: 1000
next table: 1448
cur table: 1455
epoch: 1000
next table: 1461
cur table: 1448
epoch: 1000
next table: 2013
cur table: 2013
epoch: 1000
next table: 1455
cur table: 1461
epoch: 1000
next table: 2009
cur table: 2013
epoch: 1000
next table: 1461
cur table: 1455
epoch: 1000
next table: 2016
cur table: 2009
epoch: 1000
next table: 1476
cur table: 1461
epoch: 1000
next table: 2011
cur table: 2016
epoch: 1000
next table: 1466
cur table: 1476
epoch: 1000
next table: 2012
cur table: 2011
epoch: 1000
next table: 1448
cur table: 1466
epoch: 1000
next table: 2016
cur table: 2012
epoch: 1000
next table: 1451
cur table: 1448
epoch: 1000
next table: 2015
cur table: 2016
epoch: 1000
next table: 1451
cur table: 1451
epoch: 1000
next table: 2008
cur table: 2015
epoch: 1000
next table: 1455
cur table: 1451
epoch: 1000
next table: 2017
cur table: 2008
epoch: 1000
next table: 1457
cur table: 1455
epoch: 1000
next table: 2009
cur table: 2017
epoch: 1000
next table: 1453
cur table: 1457
epoch: 1000
next table: 2014
cur table: 2009
epoch: 1000
next table: 1460
cur table: 1453
epoch: 1000
next table: 2012
cur table: 2014
epoch: 1000
next table: 1453
cur table: 1460
epoch: 1000
next table: 2014
cur table: 2012
epoch: 1000
next table: 1448
cur table: 1453
epoch: 1000
next table: 2010
cur table: 2014
epoch: 1000
next table: 1462
cur table: 1448
epoch: 1000
next table: 2016
cur table: 2010
epoch: 1000
next table: 1453
cur table: 1462
epoch: 1000
next table: 2012
cur table: 2016
epoch: 1000
next table: 1457
cur table: 1453
epoch: 1000
next table: 2013
cur table: 2012
epoch: 1000
next table: 1456
cur table: 1457
epoch: 1000
next table: 2014
cur table: 2013
epoch: 1000
next table: 1460
[...]
cur table: 1416
epoch: 1000
next table: 2015
cur table: 2013
epoch: 1000
next table: 1410
cur table: 1412
epoch: 1000
next table: 2012
cur table: 2015
epoch: 1000
next table: 1421
cur table: 1410
epoch: 1000
next table: 2012
cur table: 2012
epoch: 1000
next table: 1410
cur table: 1421
epoch: 1000
next table: 2013
cur table: 2012
epoch: 1000
next table: 1409
cur table: 1410
epoch: 1000
next table: 2008
cur table: 2013
epoch: 1000
next table: 1422
cur table: 1409
epoch: 1000
next table: 2010
cur table: 2008
epoch: 1000
next table: 1415
cur table: 1422
epoch: 1000
next table: 2013
cur table: 2010
epoch: 1000
next table: 1412
cur table: 1415
epoch: 1000
next table: 2012
cur table: 2013
epoch: 1000
next table: 1422
cur table: 1412
epoch: 1000
next table: 2011
cur table: 2012
epoch: 1000
next table: 1416
cur table: 1422
epoch: 1000
next table: 2013
cur table: 2011
epoch: 1000
next table: 1412
cur table: 1416
epoch: 1000
next table: 2014
cur table: 2013
epoch: 1000
next table: 1404
cur table: 1412
epoch: 1000
next table: 2014
cur table: 2014
epoch: 1000
next table: 1413
cur table: 1404
epoch: 1000
next table: 2011
cur table: 2014
epoch: 1000
next table: 1418
cur table: 1413
epoch: 1000
next table: 2013
cur table: 2011
epoch: 1000
next table: 1416
cur table: 1418
epoch: 1000
next table: 2014
cur table: 2013
epoch: 1000
next table: 1416
cur table: 1416
epoch: 1000
next table: 2015
cur table: 2014
epoch: 1000
next table: 1419
cur table: 1416
epoch: 1000
next table: 2015
cur table: 2015
epoch: 1000
next table: 1412
cur table: 1419
epoch: 1000
next table: 2008
cur table: 2015
epoch: 1000
next table: 1418
cur table: 1412
epoch: 1000
next table: 2015
cur table: 2008
epoch: 1000
next table: 1412
cur table: 1418
epoch: 1000
next table: 2015
cur table: 2015
epoch: 1000
next table: 1417
cur table: 1412
epoch: 1000
next table: 2014
cur table: 2015
epoch: 1000
next table: 1415
cur table: 1417
epoch: 1000
next table: 2012
cur table: 2014
epoch: 1000
next table: 1416
cur table: 1415
epoch: 1000
next table: 2012
cur table: 2012
epoch: 1000
next table: 1421
cur table: 1416
epoch: 1000
next table: 2014
cur table: 2012
epoch: 1000
next table: 1410
cur table: 1421
Heartbeat CPU 0 instructions: 100000000 cycles: 78886247 heartbeat IPC: 0.741945 cumulative IPC: 0.831884 (Simulation time: 0 hr 25 min 3 sec) 
Finished CPU 0 instructions: 50000003 cycles: 60104532 cumulative IPC: 0.831884 (Simulation time: 0 hr 25 min 3 sec) 

ChampSim completed all CPUs

Region of Interest Statistics

CPU 0 cumulative IPC: 0.831884 instructions: 50000003 cycles: 60104532
ITLB TOTAL     ACCESS:    7343877  HIT:    7343875  MISS:          2  HIT %:        100  MISS %: 2.72336e-05   MPKI: 4e-05
ITLB LOAD TRANSLATION ACCESS:    7343877  HIT:    7343875  MISS:          2  HIT %:        100  MISS %: 2.72336e-05   MPKI: 4e-05
ITLB PREFETCH  REQUESTED:          0  ISSUED:          0  USEFUL:          0  USELESS:          0
ITLB USEFUL LOAD PREFETCHES:          0 PREFETCH ISSUED TO LOWER LEVEL:          0  ACCURACY: -nan
ITLB TIMELY PREFETCHES:          0 LATE PREFETCHES: 0 DROPPED PREFETCHES: 0
ITLB PREFETCHES SAME FILL-ORIGIN LEVEL: 0 DIFFERENT FILL-ORIGIN LEVEL: 0
ITLB AVERAGE MISS LATENCY: 320 cycles
ITLB RQ	ACCESS:    8925269	FORWARD:          0	MERGED:    1581392	TO_CACHE:    7343877

Revised Interactions: positive negative neutral
ITLB_interactions 0 0 0 -nan -nan -nan
DTLB TOTAL     ACCESS:    9990369  HIT:    9970772  MISS:      19597  HIT %:    99.8038  MISS %:   0.196159   MPKI: 0.39194
DTLB LOAD TRANSLATION ACCESS:    9990369  HIT:    9970772  MISS:      19597  HIT %:    99.8038  MISS %:   0.196159   MPKI: 0.39194
DTLB PREFETCH  REQUESTED:          0  ISSUED:          0  USEFUL:          0  USELESS:          0
DTLB USEFUL LOAD PREFETCHES:          0 PREFETCH ISSUED TO LOWER LEVEL:          0  ACCURACY: -nan
DTLB TIMELY PREFETCHES:          0 LATE PREFETCHES: 0 DROPPED PREFETCHES: 0
DTLB PREFETCHES SAME FILL-ORIGIN LEVEL: 0 DIFFERENT FILL-ORIGIN LEVEL: 0
DTLB AVERAGE MISS LATENCY: 122.471 cycles
DTLB RQ	ACCESS:   10364148	FORWARD:          0	MERGED:     355912	TO_CACHE:   10008236

Revised Interactions: positive negative neutral
DTLB_interactions 0 0 0 -nan -nan -nan
STLB TOTAL     ACCESS:      19599  HIT:       1320  MISS:      18279  HIT %:    6.73504  MISS %:     93.265   MPKI: 0.36558
STLB LOAD TRANSLATION ACCESS:      19599  HIT:       1320  MISS:      18279  HIT %:    6.73504  MISS %:     93.265   MPKI: 0.36558
STLB PREFETCH  REQUESTED:          0  ISSUED:          0  USEFUL:          0  USELESS:          0
STLB USEFUL LOAD PREFETCHES:          0 PREFETCH ISSUED TO LOWER LEVEL:          0  ACCURACY: -nan
STLB TIMELY PREFETCHES:          0 LATE PREFETCHES: 0 DROPPED PREFETCHES: 0
STLB PREFETCHES SAME FILL-ORIGIN LEVEL: 0 DIFFERENT FILL-ORIGIN LEVEL: 0
STLB AVERAGE MISS LATENCY: 121.604 cycles
STLB RQ	ACCESS:      19599	FORWARD:          0	MERGED:          0	TO_CACHE:      19599

Revised Interactions: positive negative neutral
STLB_interactions 0 0 0 -nan -nan -nan
STLB Hit, L1D data hit: 0
STLB Hit, L2C data hit: 0
STLB Hit, LLC data hit: 0
STLB Hit, LLC data miss: 0
STLB STLB hints to L2: 0
L1D TOTAL     ACCESS:    8775546  HIT:    7637443  MISS:    1138103  HIT %:     87.031  MISS %:     12.969   MPKI: 22.7621
L1D LOAD      ACCESS:    8335593  HIT:    7469722  MISS:     865871  HIT %:    89.6124  MISS %:    10.3876   MPKI: 17.3174
L1D RFO       ACCESS:     439953  HIT:     167721  MISS:     272232  HIT %:    38.1225  MISS %:    61.8775   MPKI: 5.44464
L1D PREFETCH  REQUESTED:          0  ISSUED:          0  USEFUL:          0  USELESS:          0
L1D USEFUL LOAD PREFETCHES:          0 PREFETCH ISSUED TO LOWER LEVEL:          0  ACCURACY: -nan
L1D TIMELY PREFETCHES:          0 LATE PREFETCHES: 0 DROPPED PREFETCHES: 0
L1D PREFETCHES SAME FILL-ORIGIN LEVEL: 0 DIFFERENT FILL-ORIGIN LEVEL: 0
L1D AVERAGE MISS LATENCY: 89.8232 cycles
L1D RQ	ACCESS:   13684534	FORWARD:          0	MERGED:    5160552	TO_CACHE:    8523399
L1D WQ	ACCESS:    1840749	FORWARD:        583	MERGED:          0	TO_CACHE:    1840749

Revised Interactions: positive negative neutral
L1D_interactions 0 0 0 -nan -nan -nan
L1D UNIQUE REGIONS ACCESSED: 0
L1D REGIONS CONFLICTS: 0
L1D Cross Page Prefetch Requests: 0
L1D Same Page Prefetch Requests: 0
L1D ROI Sum of L1D PQ occupancy: 0
L1D PREFETCHES PUSHED FROM L2C: 0
L1I TOTAL     ACCESS:    8925193  HIT:    8925048  MISS:        145  HIT %:    99.9984  MISS %: 0.00162461   MPKI: 0.0029
L1I LOAD      ACCESS:    8925193  HIT:    8925048  MISS:        145  HIT %:    99.9984  MISS %: 0.00162461   MPKI: 0.0029
L1I PREFETCH  REQUESTED:          0  ISSUED:          0  USEFUL:          0  USELESS:          0
L1I USEFUL LOAD PREFETCHES:          0 PREFETCH ISSUED TO LOWER LEVEL:          0  ACCURACY: -nan
L1I TIMELY PREFETCHES:          0 LATE PREFETCHES: 0 DROPPED PREFETCHES: 0
L1I PREFETCHES SAME FILL-ORIGIN LEVEL: 0 DIFFERENT FILL-ORIGIN LEVEL: 0
L1I AVERAGE MISS LATENCY: 265.276 cycles
L1I RQ	ACCESS:   12514446	FORWARD:          0	MERGED:    3589177	TO_CACHE:    8925269

Revised Interactions: positive negative neutral
L1I_interactions 0 0 0 -nan -nan -nan
BTB TOTAL     ACCESS:    1565915  HIT:    1565883  MISS:         32  HIT %:     99.998  MISS %: 0.00204353   MPKI: 0.00064
BTB BRANCH_DIRECT_JUMP	ACCESS:          0  HIT:          0  MISS:          0
BTB BRANCH_INDIRECT	ACCESS:          0  HIT:          0  MISS:          0
BTB BRANCH_CONDITIONAL	ACCESS:    1565909  HIT:    1565883  MISS:         26
BTB BRANCH_DIRECT_CALL	ACCESS:          3  HIT:          0  MISS:          3
BTB BRANCH_INDIRECT_CALL	ACCESS:          0  HIT:          0  MISS:          0
BTB BRANCH_RETURN	ACCESS:          3  HIT:          0  MISS:          3
BTB BRANCH_OTHER ACCESS:          0  HIT:          0  MISS:          0

L2C TOTAL     ACCESS:    3242929  HIT:    2332151  MISS:     910778  HIT %:     71.915  MISS %:     28.085   MPKI: 18.2156
L2C LOAD      ACCESS:     866016  HIT:     678148  MISS:     187868  HIT %:    78.3066  MISS %:    21.6934   MPKI: 3.75736
L2C DATA LOAD MPKI: 3.75446
L2C INSTRUCTION LOAD MPKI: 0.0029
L2C RFO       ACCESS:     272232  HIT:          5  MISS:     272227  HIT %: 0.00183667  MISS %:    99.9982   MPKI: 5.44454
L2C PREFETCH  ACCESS:    1811940  HIT:    1370928  MISS:     441012  HIT %:    75.6608  MISS %:    24.3392   MPKI: 8.82024
L2C DATA PREFETCH MPKI: 8.82024
L2C INSTRUCTION PREFETCH MPKI: 0
L2C WRITEBACK ACCESS:     274415  HIT:     268452  MISS:       5963  HIT %:     97.827  MISS %:    2.17299   MPKI: 0.11926
L2C LOAD TRANSLATION ACCESS:      18326  HIT:      14618  MISS:       3708  HIT %:    79.7665  MISS %:    20.2335   MPKI: 0.07416
L2C PREFETCH  REQUESTED:    6848267  ISSUED:    6564666  USEFUL:     437336  USELESS:       3661
L2C USEFUL LOAD PREFETCHES:     437336 PREFETCH ISSUED TO LOWER LEVEL:    5148727  ACCURACY: 8.49406
L2C TIMELY PREFETCHES:     437336 LATE PREFETCHES: 4408 DROPPED PREFETCHES: 0
L2C PREFETCHES SAME FILL-ORIGIN LEVEL: 445420 DIFFERENT FILL-ORIGIN LEVEL: 4703307
L2C AVERAGE MISS LATENCY: 111.006 cycles
L2C RQ	ACCESS:    1156575	FORWARD:          0	MERGED:          0	TO_CACHE:    1156575
L2C WQ	ACCESS:     274415	FORWARD:          0	MERGED:          0	TO_CACHE:     274415
L2C PQ	ACCESS:    6564666	FORWARD:          0	MERGED:      41695	TO_CACHE:    6522971

Revised Interactions: positive negative neutral
L2C_interactions 436396 3471 1810 98.8043 0.785868 0.409802
L2C Instructions Evicting Data 145
L2C Translations Evicting Data 3695
L2C Data Evicting Data 897134
L2C Instructions Evicting Instructions 0
L2C Translations Evicting Instructions 2
L2C Data Evicting Instructions 143
L2C Instructions Evicting Translations 0
L2C Translations Evicting Translations 11
L2C Data Evicting Translations 3685
L2C Dense regions hint from L2: 0
PSCL5 TOTAL     ACCESS:      18279  HIT:      18279  MISS:          0  HIT %:        100  MISS %:          0   MPKI: 0
PSCL5 LOAD TRANSLATION ACCESS:      18279  HIT:      18279  MISS:          0  HIT %:        100  MISS %:          0   MPKI: 0
PSCL5 PREFETCH  REQUESTED:          0  ISSUED:          0  USEFUL:          0  USELESS:          0
PSCL5 USEFUL LOAD PREFETCHES:          0 PREFETCH ISSUED TO LOWER LEVEL:          0  ACCURACY: -nan
PSCL5 TIMELY PREFETCHES:          0 LATE PREFETCHES: 0 DROPPED PREFETCHES: 0
PSCL5 PREFETCHES SAME FILL-ORIGIN LEVEL: 0 DIFFERENT FILL-ORIGIN LEVEL: 0

Revised Interactions: positive negative neutral
PSCL5_interactions 0 0 0 -nan -nan -nan
PSCL4 TOTAL     ACCESS:      18279  HIT:      18279  MISS:          0  HIT %:        100  MISS %:          0   MPKI: 0
PSCL4 LOAD TRANSLATION ACCESS:      18279  HIT:      18279  MISS:          0  HIT %:        100  MISS %:          0   MPKI: 0
PSCL4 PREFETCH  REQUESTED:          0  ISSUED:          0  USEFUL:          0  USELESS:          0
PSCL4 USEFUL LOAD PREFETCHES:          0 PREFETCH ISSUED TO LOWER LEVEL:          0  ACCURACY: -nan
PSCL4 TIMELY PREFETCHES:          0 LATE PREFETCHES: 0 DROPPED PREFETCHES: 0
PSCL4 PREFETCHES SAME FILL-ORIGIN LEVEL: 0 DIFFERENT FILL-ORIGIN LEVEL: 0

Revised Interactions: positive negative neutral
PSCL4_interactions 0 0 0 -nan -nan -nan
PSCL3 TOTAL     ACCESS:      18279  HIT:      18279  MISS:          0  HIT %:        100  MISS %:          0   MPKI: 0
PSCL3 LOAD TRANSLATION ACCESS:      18279  HIT:      18279  MISS:          0  HIT %:        100  MISS %:          0   MPKI: 0
PSCL3 PREFETCH  REQUESTED:          0  ISSUED:          0  USEFUL:          0  USELESS:          0
PSCL3 USEFUL LOAD PREFETCHES:          0 PREFETCH ISSUED TO LOWER LEVEL:          0  ACCURACY: -nan
PSCL3 TIMELY PREFETCHES:          0 LATE PREFETCHES: 0 DROPPED PREFETCHES: 0
PSCL3 PREFETCHES SAME FILL-ORIGIN LEVEL: 0 DIFFERENT FILL-ORIGIN LEVEL: 0

Revised Interactions: positive negative neutral
PSCL3_interactions 0 0 0 -nan -nan -nan
PSCL2 TOTAL     ACCESS:      18279  HIT:      18230  MISS:         49  HIT %:    99.7319  MISS %:   0.268067   MPKI: 0.00098
PSCL2 LOAD TRANSLATION ACCESS:      18279  HIT:      18230  MISS:         49  HIT %:    99.7319  MISS %:   0.268067   MPKI: 0.00098
PSCL2 PREFETCH  REQUESTED:          0  ISSUED:          0  USEFUL:          0  USELESS:          0
PSCL2 USEFUL LOAD PREFETCHES:          0 PREFETCH ISSUED TO LOWER LEVEL:          0  ACCURACY: -nan
PSCL2 TIMELY PREFETCHES:          0 LATE PREFETCHES: 0 DROPPED PREFETCHES: 0
PSCL2 PREFETCHES SAME FILL-ORIGIN LEVEL: 0 DIFFERENT FILL-ORIGIN LEVEL: 0

Revised Interactions: positive negative neutral
PSCL2_interactions 0 0 0 -nan -nan -nan
LLC TOTAL     ACCESS:    5605702  HIT:    4664058  MISS:     941644  HIT %:     83.202  MISS %:     16.798   MPKI: 18.8329
LLC LOAD      ACCESS:     183460  HIT:     161883  MISS:      21577  HIT %:    88.2389  MISS %:    11.7611   MPKI: 0.43154
LLC RFO       ACCESS:     272227  HIT:         31  MISS:     272196  HIT %:  0.0113876  MISS %:    99.9886   MPKI: 5.44392
LLC PREFETCH  ACCESS:    4871859  HIT:    4235778  MISS:     636081  HIT %:    86.9438  MISS %:    13.0562   MPKI: 12.7216
LLC WRITEBACK ACCESS:     274448  HIT:     266294  MISS:       8154  HIT %:    97.0289  MISS %:    2.97105   MPKI: 0.16308
LLC LOAD TRANSLATION ACCESS:       3708  HIT:         72  MISS:       3636  HIT %:    1.94175  MISS %:    98.0583   MPKI: 0.07272
LLC PREFETCH  REQUESTED:          0  ISSUED:          0  USEFUL:     160080  USELESS:     471103
LLC USEFUL LOAD PREFETCHES:     160080 PREFETCH ISSUED TO LOWER LEVEL:     637282  ACCURACY: 25.1192
LLC TIMELY PREFETCHES:     160080 LATE PREFETCHES: 1199 DROPPED PREFETCHES: 0
LLC PREFETCHES SAME FILL-ORIGIN LEVEL: 628884 DIFFERENT FILL-ORIGIN LEVEL: 0
LLC AVERAGE MISS LATENCY: 228.03 cycles
LLC RQ	ACCESS:     459396	FORWARD:          0	MERGED:          0	TO_CACHE:     459396
LLC WQ	ACCESS:     274448	FORWARD:          0	MERGED:          0	TO_CACHE:     274448
LLC PQ	ACCESS:    5148727	FORWARD:          0	MERGED:       5369	TO_CACHE:    5143358

Revised Interactions: positive negative neutral
LLC_interactions 159908 475117 134002 20.7935 61.7816 17.4249
LLC Dense regions hint to LLC: 0

RAW hits: 3007
Loads Generated: 13687541
Loads sent to L1D: 13684534
Stores Generated: 1840903
Stores sent to L1D: 1840904
Major fault: 0 Minor fault: 33685
Allocated PAGES: 33685
 All Calls: 2245850
 Critical Calls: 2245850
------------------
Depth Distribution
------------------
depth 0: 0
depth 1: 2089720
depth 2: 2022471
depth 3: 1957745
depth 4: 1890846
depth 5: 1811854
depth 6: 1718165
depth 7: 1516532
depth 8: 1160399
depth 9: 785266
depth 10: 478450
depth 11: 249715
depth 12: 121199
depth 13: 48462
depth 14: 15042
depth 15: 14679
depth 16: 29
depth 17: 0
depth 18: 0
depth 19: 0
depth 20: 0
depth 21: 0
depth 22: 0
depth 23: 0
depth 24: 0
depth 25: 0
depth 26: 0
depth 27: 0
depth 28: 0
depth 29: 0
Total: 15880574
-----------------------------
-----------------------------
	Captured at Filter
-----------------------------
depth 0: 0
depth 1: 85623
depth 2: 81852
depth 3: 78808
depth 4: 76185
depth 5: 72293
depth 6: 66980
depth 7: 59379
depth 8: 43376
depth 9: 30266
depth 10: 13923
depth 11: 5099
depth 12: 1191
depth 13: 238
depth 14: 77
depth 15: 62
depth 16: 0
depth 17: 0
depth 18: 0
depth 19: 0
depth 20: 0
depth 21: 0
depth 22: 0
depth 23: 0
depth 24: 0
depth 25: 0
depth 26: 0
depth 27: 0
depth 28: 0
depth 29: 0
-----------------------------
-----------------------------
		Lost at Page
-----------------------------
depth 0: 0
depth 1: 35149
depth 2: 69201
depth 3: 103253
depth 4: 137326
depth 5: 170965
depth 6: 204062
depth 7: 219954
depth 8: 201213
depth 9: 160099
depth 10: 110437
depth 11: 64782
depth 12: 32728
depth 13: 12569
depth 14: 4228
depth 15: 4529
depth 16: 2
depth 17: 0
depth 18: 0
depth 19: 0
depth 20: 0
depth 21: 0
depth 22: 0
depth 23: 0
depth 24: 0
depth 25: 0
depth 26: 0
depth 27: 0
depth 28: 0
depth 29: 0
-----------------------------
-----------------------------
	Lost due to PQ Size
-----------------------------
1290446
-----------------------------
ST read accesses: 851410
ST write accesses: 14461
PT read accesses: 43564574
PT write accesses: 1270573
FILTER read accesses: 8967287
FILTER write accesses: 2027368
GHR read accesses: 4083427
GHR write accesses: 650378
GHR counter read accesses: 36535714
GHR counter write accesses: 1990452
ST tag read accesses: 340001186
ST tag write accesses: 8684220

DRAM Statistics
 CHANNEL 0
 RQ ROW_BUFFER_HIT:     124968  ROW_BUFFER_MISS:     808522
 DBUS_CONGESTED:        133
 WQ ROW_BUFFER_HIT:      50420  ROW_BUFFER_MISS:     229006  FULL:          0

 AVG_CONGESTED_CYCLE: 4
 All warmup complete: 2
Channel 0 Bank busy for read cycles: 0
Channel 0 Bank busy for write cycles: 0
Channel 0
Rank 0
0banks busy for read cycles: 8892835
0banks busy for write cycles: 11590
1banks busy for read cycles: 11573053
1banks busy for write cycles: 1590328
2banks busy for read cycles: 7978991
2banks busy for write cycles: 504763
3banks busy for read cycles: 5487718
3banks busy for write cycles: 368219
4banks busy for read cycles: 4938697
4banks busy for write cycles: 349447
5banks busy for read cycles: 3891425
5banks busy for write cycles: 384500
6banks busy for read cycles: 2240296
6banks busy for write cycles: 469485
7banks busy for read cycles: 1576051
7banks busy for write cycles: 915295
8banks busy for read cycles: 2921999
8banks busy for write cycles: 6009841

CPU 0 Branch Prediction Accuracy: 99.7618% MPKI: 0.07482 Average ROB Occupancy at Mispredict: 75.4443
Branch types
NOT_BRANCH: 48429657 96.8593%
BRANCH_DIRECT_JUMP: 0 0%
BRANCH_INDIRECT: 0 0%
BRANCH_CONDITIONAL: 1570362 3.14072%
BRANCH_DIRECT_CALL: 3 6e-06%
BRANCH_INDIRECT_CALL: 0 0%
BRANCH_RETURN: 3 6e-06%
BRANCH_OTHER: 0 0%

@sumon_overall_L1D         0         0         0         0         0         0         0
@Sumon_Early_by_class_L1D         0         0         0         0
@Sumon_Late_by_class_L1D         0         0         0         0

@Sumon_Early_by_cycle_L1D         0         0         0         0         0         0         0         0         0         0         0         0
@Sumon_Late_by_cycle_L1D         0         0         0         0         0         0
@Sumon_Early_stream_L1D         0         0         0         0         0         0         0         0         0         0         0         0
@Sumon_Early_CS_L1D         0         0         0         0         0         0         0         0         0         0         0         0
@Sumon_Early_CPLX_L1D         0         0         0         0         0         0         0         0         0         0         0         0
@Sumon_Late_stream_L1D         0         0         0         0         0         0
@Sumon_Late_CS_L1D         0         0         0         0         0         0
@Sumon_Late_CPLX_L1D         0         0         0         0         0         0
@sumon_overall_L2C    437336      4408         0      3661    441012   6564666   6848267
@Sumon_Early_by_class_L2C         0         0         0         0
@Sumon_Late_by_class_L2C         0         0         0         0

@Sumon_Early_by_cycle_L2C    104240    133816     65043    128677      3247       860         0         1         0      1443         9         0
@Sumon_Late_by_cycle_L2C       610       867       911       424      1465       131
@Sumon_Early_stream_L2C         0         0         0         0         0         0         0         0         0         0         0         0
@Sumon_Early_CS_L2C         0         0         0         0         0         0         0         0         0         0         0         0
@Sumon_Early_CPLX_L2C         0         0         0         0         0         0         0         0         0         0         0         0
@Sumon_Late_stream_L2C         0         0         0         0         0         0
@Sumon_Late_CS_L2C         0         0         0         0         0         0
@Sumon_Late_CPLX_L2C         0         0         0         0         0         0
DRAM PAGES: 1048576
Allocated PAGES: 33685
