
*** ChampSim Multicore Out-of-Order Simulator ***

Warmup Instructions: 10000000
Simulation Instructions: 50000000
Number of CPUs: 1
LLC sets: 2048
LLC ways: 16
Off-chip DRAM Size: 4096 MB Channels: 1 Width: 64-bit Data Rate: 6400 MT/s
CPU 0 runs traces/clientserver/client_007.champsimtrace.xz
.xz
CPU 0 Bimodal branch predictor
BTB has LRU replacement policy
ITLB has LRU replacement policy
DTLB has LRU replacement policy
STLB has LRU replacement policy
L1I has LRU replacement policy
IP Table Entries: 256
Initialize DRRIP state for L1D
IP_Table L2 entries: 256
Initialize DRRIP state for L2C
Initialize DRRIP state for LLC
Heartbeat CPU 0 instructions: 10000003 cycles: 3032756 heartbeat IPC: 3.29733 cumulative IPC: 3.29733 (Simulation time: 0 hr 18 min 48 sec) 

Warmup complete CPU 0 instructions: 10000003 cycles: 3032756 (Simulation time: 0 hr 18 min 48 sec) 

Heartbeat CPU 0 instructions: 20000003 cycles: 20140608 heartbeat IPC: 0.584527 cumulative IPC: 0.584527 (Simulation time: 0 hr 34 min 59 sec) 
Heartbeat CPU 0 instructions: 30000000 cycles: 36207266 heartbeat IPC: 0.622407 cumulative IPC: 0.602872 (Simulation time: 0 hr 51 min 19 sec) 
Heartbeat CPU 0 instructions: 40000003 cycles: 52529203 heartbeat IPC: 0.612673 cumulative IPC: 0.606104 (Simulation time: 1 hr 2 min 51 sec) 
Heartbeat CPU 0 instructions: 50000001 cycles: 69525027 heartbeat IPC: 0.58838 cumulative IPC: 0.601574 (Simulation time: 1 hr 12 min 44 sec) 
Heartbeat CPU 0 instructions: 60000003 cycles: 85350077 heartbeat IPC: 0.63191 cumulative IPC: 0.607406 (Simulation time: 1 hr 18 min 59 sec) 
Finished CPU 0 instructions: 50000000 cycles: 82317321 cumulative IPC: 0.607406 (Simulation time: 1 hr 18 min 59 sec) 

ChampSim completed all CPUs

Region of Interest Statistics

CPU 0 cumulative IPC: 0.607406 instructions: 50000000 cycles: 82317321
ITLB TOTAL     ACCESS:    8188904  HIT:    8037563  MISS:     151341  HIT %:    98.1519  MISS %:    1.84812   MPKI: 3.02682
ITLB LOAD TRANSLATION ACCESS:    8188904  HIT:    8037563  MISS:     151341  HIT %:    98.1519  MISS %:    1.84812   MPKI: 3.02682
ITLB PREFETCH  REQUESTED:          0  ISSUED:          0  USEFUL:          0  USELESS:          0
ITLB USEFUL LOAD PREFETCHES:          0 PREFETCH ISSUED TO LOWER LEVEL:          0  ACCURACY: -nan
ITLB TIMELY PREFETCHES:          0 LATE PREFETCHES: 0 DROPPED PREFETCHES: 0
ITLB PREFETCHES SAME FILL-ORIGIN LEVEL: 0 DIFFERENT FILL-ORIGIN LEVEL: 0
ITLB AVERAGE MISS LATENCY: 9.81768 cycles
ITLB RQ	ACCESS:    9761102	FORWARD:          0	MERGED:    1546702	TO_CACHE:    8214400

DTLB TOTAL     ACCESS:   13054093  HIT:   12731024  MISS:     323069  HIT %:    97.5252  MISS %:    2.47485   MPKI: 6.46138
DTLB LOAD TRANSLATION ACCESS:   13054093  HIT:   12731024  MISS:     323069  HIT %:    97.5252  MISS %:    2.47485   MPKI: 6.46138
DTLB PREFETCH  REQUESTED:          0  ISSUED:          0  USEFUL:          0  USELESS:          0
DTLB USEFUL LOAD PREFETCHES:          0 PREFETCH ISSUED TO LOWER LEVEL:          0  ACCURACY: -nan
DTLB TIMELY PREFETCHES:          0 LATE PREFETCHES: 0 DROPPED PREFETCHES: 0
DTLB PREFETCHES SAME FILL-ORIGIN LEVEL: 0 DIFFERENT FILL-ORIGIN LEVEL: 0
DTLB AVERAGE MISS LATENCY: 10.371 cycles
DTLB RQ	ACCESS:   15135360	FORWARD:          0	MERGED:    2067094	TO_CACHE:   13068266

STLB TOTAL     ACCESS:    1390555  HIT:    1386797  MISS:       3758  HIT %:    99.7297  MISS %:   0.270252   MPKI: 0.07516
STLB LOAD TRANSLATION ACCESS:     474410  HIT:     470652  MISS:       3758  HIT %:    99.2079  MISS %:   0.792142   MPKI: 0.07516
STLB TRANSLATION FROM L1D PREFETCHER ACCESS:     916145  HIT:     916145  MISS:          0  HIT %:        100  MISS %:          0   MPKI: 0
STLB PREFETCH  REQUESTED:          0  ISSUED:          0  USEFUL:          0  USELESS:          0
STLB USEFUL LOAD PREFETCHES:          0 PREFETCH ISSUED TO LOWER LEVEL:          0  ACCURACY: -nan
STLB TIMELY PREFETCHES:          0 LATE PREFETCHES: 0 DROPPED PREFETCHES: 0
STLB PREFETCHES SAME FILL-ORIGIN LEVEL: 0 DIFFERENT FILL-ORIGIN LEVEL: 0
STLB AVERAGE MISS LATENCY: 148.351 cycles
STLB RQ	ACCESS:    1795841	FORWARD:          0	MERGED:     405286	TO_CACHE:    1390555

STLB Hit, L1D data hit: 0
STLB Hit, L2C data hit: 0
STLB Hit, LLC data hit: 0
STLB Hit, LLC data miss: 0
STLB STLB hints to L2: 0
L1D TOTAL     ACCESS:   16260597  HIT:   15101771  MISS:    1158826  HIT %:    92.8734  MISS %:    7.12659   MPKI: 23.1765
L1D LOAD      ACCESS:   10929970  HIT:   10345708  MISS:     584262  HIT %:    94.6545  MISS %:     5.3455   MPKI: 11.6852
L1D RFO       ACCESS:    4053016  HIT:    3967550  MISS:      85466  HIT %:    97.8913  MISS %:     2.1087   MPKI: 1.70932
L1D PREFETCH  ACCESS:    1277611  HIT:     788513  MISS:     489098  HIT %:    61.7178  MISS %:    38.2822   MPKI: 9.78196
L1D PREFETCH  REQUESTED:    2643247  ISSUED:    2643035  USEFUL:     122326  USELESS:     366704
L1D USEFUL LOAD PREFETCHES:     122326 PREFETCH ISSUED TO LOWER LEVEL:     503119  ACCURACY: 24.3135
L1D TIMELY PREFETCHES:     122326 LATE PREFETCHES: 13654 DROPPED PREFETCHES: 0
L1D PREFETCHES SAME FILL-ORIGIN LEVEL: 503119 DIFFERENT FILL-ORIGIN LEVEL: 0
L1D AVERAGE MISS LATENCY: 559847 cycles
L1D RQ	ACCESS:   14212685	FORWARD:          0	MERGED:    3176313	TO_CACHE:   10959407
L1D WQ	ACCESS:    4262314	FORWARD:      77138	MERGED:      86361	TO_CACHE:    4175953
L1D PQ	ACCESS:    1321604	FORWARD:          0	MERGED:          0	TO_CACHE:    1321431

L1D UNIQUE REGIONS ACCESSED: 0
L1D REGIONS CONFLICTS: 0
L1D Cross Page Prefetch Requests: 0
L1D Same Page Prefetch Requests: 1532126
L1D ROI Sum of L1D PQ occupancy: 17158528
L1D PREFETCHES PUSHED FROM L2C: 0
L1I TOTAL     ACCESS:    9430656  HIT:    8500870  MISS:     929786  HIT %:    90.1408  MISS %:    9.85919   MPKI: 18.5957
L1I LOAD      ACCESS:    9430656  HIT:    8500870  MISS:     929786  HIT %:    90.1408  MISS %:    9.85919   MPKI: 18.5957
L1I PREFETCH  REQUESTED:          0  ISSUED:          0  USEFUL:          0  USELESS:          0
L1I USEFUL LOAD PREFETCHES:          0 PREFETCH ISSUED TO LOWER LEVEL:          0  ACCURACY: -nan
L1I TIMELY PREFETCHES:          0 LATE PREFETCHES: 0 DROPPED PREFETCHES: 0
L1I PREFETCHES SAME FILL-ORIGIN LEVEL: 0 DIFFERENT FILL-ORIGIN LEVEL: 0
L1I AVERAGE MISS LATENCY: 16.2511 cycles
L1I RQ	ACCESS:   14294973	FORWARD:          0	MERGED:    4533871	TO_CACHE:    9761102

BTB TOTAL     ACCESS:    6697829  HIT:    6283948  MISS:     413881  HIT %:    93.8207  MISS %:    6.17933   MPKI: 8.27762
BTB BRANCH_DIRECT_JUMP	ACCESS:     755928  HIT:     751742  MISS:       4186
BTB BRANCH_INDIRECT	ACCESS:     348209  HIT:     188037  MISS:     160172
BTB BRANCH_CONDITIONAL	ACCESS:    4185151  HIT:    4172629  MISS:      12522
BTB BRANCH_DIRECT_CALL	ACCESS:     451943  HIT:     445427  MISS:       6516
BTB BRANCH_INDIRECT_CALL	ACCESS:     241100  HIT:     182621  MISS:      58479
BTB BRANCH_RETURN	ACCESS:     715498  HIT:     543492  MISS:     172006
BTB BRANCH_OTHER ACCESS:          0  HIT:          0  MISS:          0

L2C TOTAL     ACCESS:    2610603  HIT:    2406026  MISS:     204577  HIT %:    92.1636  MISS %:    7.83639   MPKI: 4.09154
L2C LOAD      ACCESS:    1500340  HIT:    1423571  MISS:      76769  HIT %:    94.8832  MISS %:    5.11677   MPKI: 1.53538
L2C DATA LOAD MPKI: 1.25134
L2C INSTRUCTION LOAD MPKI: 0.28404
L2C RFO       ACCESS:      84874  HIT:      47051  MISS:      37823  HIT %:    55.4363  MISS %:    44.5637   MPKI: 0.75646
L2C PREFETCH  ACCESS:     760527  HIT:     673611  MISS:      86916  HIT %:    88.5716  MISS %:    11.4284   MPKI: 1.73832
L2C DATA PREFETCH MPKI: 1.73832
L2C INSTRUCTION PREFETCH MPKI: 0
L2C WRITEBACK ACCESS:     260905  HIT:     259507  MISS:       1398  HIT %:    99.4642  MISS %:   0.535827   MPKI: 0.02796
L2C LOAD TRANSLATION ACCESS:       3957  HIT:       2286  MISS:       1671  HIT %:     57.771  MISS %:     42.229   MPKI: 0.03342
L2C PREFETCH  REQUESTED:     270299  ISSUED:     270299  USEFUL:      17349  USELESS:      68148
L2C USEFUL LOAD PREFETCHES:      17349 PREFETCH ISSUED TO LOWER LEVEL:      87403  ACCURACY: 19.8494
L2C TIMELY PREFETCHES:      17349 LATE PREFETCHES: 487 DROPPED PREFETCHES: 0
L2C PREFETCHES SAME FILL-ORIGIN LEVEL: 17819 DIFFERENT FILL-ORIGIN LEVEL: 0
L2C AVERAGE MISS LATENCY: 113.491 cycles
L2C RQ	ACCESS:    1589450	FORWARD:          0	MERGED:          0	TO_CACHE:    1589171
L2C WQ	ACCESS:     260905	FORWARD:        299	MERGED:          0	TO_CACHE:     260905
L2C PQ	ACCESS:     773418	FORWARD:          0	MERGED:       8953	TO_CACHE:     764445

L2C Instructions Evicting Data 12124
L2C Translations Evicting Data 1453
L2C Data Evicting Data 174109
L2C Instructions Evicting Instructions 1882
L2C Translations Evicting Instructions 186
L2C Data Evicting Instructions 11835
L2C Instructions Evicting Translations 196
L2C Translations Evicting Translations 32
L2C Data Evicting Translations 1362
L2C Dense regions hint from L2: 0
PSCL5 TOTAL     ACCESS:       3758  HIT:       3758  MISS:          0  HIT %:        100  MISS %:          0   MPKI: 0
PSCL5 LOAD TRANSLATION ACCESS:       3758  HIT:       3758  MISS:          0  HIT %:        100  MISS %:          0   MPKI: 0
PSCL5 PREFETCH  REQUESTED:          0  ISSUED:          0  USEFUL:          0  USELESS:          0
PSCL5 USEFUL LOAD PREFETCHES:          0 PREFETCH ISSUED TO LOWER LEVEL:          0  ACCURACY: -nan
PSCL5 TIMELY PREFETCHES:          0 LATE PREFETCHES: 0 DROPPED PREFETCHES: 0
PSCL5 PREFETCHES SAME FILL-ORIGIN LEVEL: 0 DIFFERENT FILL-ORIGIN LEVEL: 0

PSCL4 TOTAL     ACCESS:       3709  HIT:       3704  MISS:          5  HIT %:    99.8652  MISS %:   0.134807   MPKI: 0.0001
PSCL4 LOAD TRANSLATION ACCESS:       3709  HIT:       3704  MISS:          5  HIT %:    99.8652  MISS %:   0.134807   MPKI: 0.0001
PSCL4 PREFETCH  REQUESTED:          0  ISSUED:          0  USEFUL:          0  USELESS:          0
PSCL4 USEFUL LOAD PREFETCHES:          0 PREFETCH ISSUED TO LOWER LEVEL:          0  ACCURACY: -nan
PSCL4 TIMELY PREFETCHES:          0 LATE PREFETCHES: 0 DROPPED PREFETCHES: 0
PSCL4 PREFETCHES SAME FILL-ORIGIN LEVEL: 0 DIFFERENT FILL-ORIGIN LEVEL: 0

PSCL3 TOTAL     ACCESS:       3744  HIT:       3732  MISS:         12  HIT %:    99.6795  MISS %:   0.320513   MPKI: 0.00024
PSCL3 LOAD TRANSLATION ACCESS:       3744  HIT:       3732  MISS:         12  HIT %:    99.6795  MISS %:   0.320513   MPKI: 0.00024
PSCL3 PREFETCH  REQUESTED:          0  ISSUED:          0  USEFUL:          0  USELESS:          0
PSCL3 USEFUL LOAD PREFETCHES:          0 PREFETCH ISSUED TO LOWER LEVEL:          0  ACCURACY: -nan
PSCL3 TIMELY PREFETCHES:          0 LATE PREFETCHES: 0 DROPPED PREFETCHES: 0
PSCL3 PREFETCHES SAME FILL-ORIGIN LEVEL: 0 DIFFERENT FILL-ORIGIN LEVEL: 0

PSCL2 TOTAL     ACCESS:       3758  HIT:       3573  MISS:        185  HIT %:    95.0772  MISS %:    4.92283   MPKI: 0.0037
PSCL2 LOAD TRANSLATION ACCESS:       3758  HIT:       3573  MISS:        185  HIT %:    95.0772  MISS %:    4.92283   MPKI: 0.0037
PSCL2 PREFETCH  REQUESTED:          0  ISSUED:          0  USEFUL:          0  USELESS:          0
PSCL2 USEFUL LOAD PREFETCHES:          0 PREFETCH ISSUED TO LOWER LEVEL:          0  ACCURACY: -nan
PSCL2 TIMELY PREFETCHES:          0 LATE PREFETCHES: 0 DROPPED PREFETCHES: 0
PSCL2 PREFETCHES SAME FILL-ORIGIN LEVEL: 0 DIFFERENT FILL-ORIGIN LEVEL: 0

LLC TOTAL     ACCESS:     270958  HIT:     166171  MISS:     104787  HIT %:    61.3272  MISS %:    38.6728   MPKI: 2.09574
LLC LOAD      ACCESS:      76296  HIT:      44668  MISS:      31628  HIT %:    58.5457  MISS %:    41.4543   MPKI: 0.63256
LLC RFO       ACCESS:      37809  HIT:       5779  MISS:      32030  HIT %:    15.2847  MISS %:    84.7153   MPKI: 0.6406
LLC PREFETCH  ACCESS:      87403  HIT:      50278  MISS:      37125  HIT %:    57.5243  MISS %:    42.4757   MPKI: 0.7425
LLC WRITEBACK ACCESS:      67779  HIT:      65091  MISS:       2688  HIT %:    96.0342  MISS %:    3.96583   MPKI: 0.05376
LLC LOAD TRANSLATION ACCESS:       1671  HIT:        355  MISS:       1316  HIT %:    21.2448  MISS %:    78.7552   MPKI: 0.02632
LLC PREFETCH  REQUESTED:          0  ISSUED:          0  USEFUL:       4876  USELESS:      26434
LLC USEFUL LOAD PREFETCHES:       4876 PREFETCH ISSUED TO LOWER LEVEL:      37125  ACCURACY: 13.134
LLC TIMELY PREFETCHES:       4876 LATE PREFETCHES: 0 DROPPED PREFETCHES: 0
LLC PREFETCHES SAME FILL-ORIGIN LEVEL: 0 DIFFERENT FILL-ORIGIN LEVEL: 0
LLC AVERAGE MISS LATENCY: 163.29 cycles
LLC RQ	ACCESS:     115776	FORWARD:          0	MERGED:          0	TO_CACHE:     115776
LLC WQ	ACCESS:      67779	FORWARD:          0	MERGED:          0	TO_CACHE:      67779
LLC PQ	ACCESS:      87403	FORWARD:          0	MERGED:          0	TO_CACHE:      87403

LLC Dense regions hint to LLC: 0

RAW hits: 728405
Loads Generated: 14941095
Loads sent to L1D: 14212685
Stores Generated: 4262313
Stores sent to L1D: 4262314
Major fault: 0 Minor fault: 3373
Allocated PAGES: 3373

stream: 
stream:times selected: 1734771
stream:pref_filled: 331487
stream:pref_useful: 47511
stream:pref_late: 5843
stream:misses: 44200
stream:misses_by_poll: 0

CS: 
CS:times selected: 204842
CS:pref_filled: 103499
CS:pref_useful: 76264
CS:pref_late: 3105
CS:misses: 19128
CS:misses_by_poll: 161

CPLX: 
CPLX:times selected: 1522046
CPLX:pref_filled: 107334
CPLX:pref_useful: 14131
CPLX:pref_late: 2462
CPLX:misses: 187346
CPLX:misses_by_poll: 153

NL_L1: 
NL:times selected: 8849
NL:pref_filled: 2116
NL:pref_useful: 319
NL:pref_late: 27
NL:misses: 1506
NL:misses_by_poll: 0

total selections: 3470508
total_filled: 489098
total_useful: 122326
total_late: 14547
total_polluted: 314
total_misses_after_warmup: 613699
conflicts: 1946617
Degree Incremented Times: 458
Degree Decremented Times: 179998

L1 IP Table Write Accesses: 8142068
L1 IP Table Read Accesses: 6195451
L1 RST Write Accesses: 1480850
L1 RST Read Accesses: 2961700
L1 CSPT Write Accesses: 1480850
L1 CSPT Read Accesses: 2763138
L1 RR Filter Tag Write Accesses: 1321816
L1 RR Filter Tag Read Accesses: 67834102
L1 IP Table Tag Write Accesses: 10959407
L1 IP Table Tag Read Accesses: 10959407
L1 RST Tag Write Accesses: 0
L1 RST Tag Read Accesses: 13507423
L1 RR Filter Write Accesses: 0
L1 RR Filter Read Accesses: 2456565
test: 581957
L2 IP Table Read Accesses: 1880697
L2 IP Table Write Accesses: 1735333
L2 IP Table Tag Read Accesses: 1068720
L2 IP Table Tag Write Accesses: 1068720

DRAM Statistics
 CHANNEL 0
 RQ ROW_BUFFER_HIT:      18277  ROW_BUFFER_MISS:      83813
 DBUS_CONGESTED:        109
 WQ ROW_BUFFER_HIT:      11737  ROW_BUFFER_MISS:      47646  FULL:          0

 AVG_CONGESTED_CYCLE: 4
 All warmup complete: 2
Channel 0 Bank busy for read cycles: 0
Channel 0 Bank busy for write cycles: 0
Channel 0
Rank 0
0banks busy for read cycles: 68288117
0banks busy for write cycles: 21683
1banks busy for read cycles: 5902784
1banks busy for write cycles: 2834702
2banks busy for read cycles: 1761486
2banks busy for write cycles: 848686
3banks busy for read cycles: 615320
3banks busy for write cycles: 449332
4banks busy for read cycles: 270691
4banks busy for write cycles: 277383
5banks busy for read cycles: 93986
5banks busy for write cycles: 192899
6banks busy for read cycles: 52753
6banks busy for write cycles: 159191
7banks busy for read cycles: 33316
7banks busy for write cycles: 176238
8banks busy for read cycles: 18905
8banks busy for write cycles: 319850

CPU 0 Branch Prediction Accuracy: 95.4787% MPKI: 8.10268 Average ROB Occupancy at Mispredict: 46.3103
Branch types
NOT_BRANCH: 41039511 82.079%
BRANCH_DIRECT_JUMP: 755928 1.51186%
BRANCH_INDIRECT: 348209 0.696418%
BRANCH_CONDITIONAL: 6447952 12.8959%
BRANCH_DIRECT_CALL: 451943 0.903886%
BRANCH_INDIRECT_CALL: 241100 0.4822%
BRANCH_RETURN: 715498 1.431%
BRANCH_OTHER: 0 0%

@sumon_overall_L1D    122326     13654    366704    489098   2643035   2643247
@Sumon_Early_by_class_L1D     37857     72382     11346        17
@Sumon_Late_by_class_L1D      5116      3097      2399        17

@Sumon_Early_by_cycle_L1D     60073     24839      7938      7982      2276      6923      3795      2960      1936      1799       943       862
@Sumon_Late_by_cycle_L1D     12527       992       121        12         2         0         0         0         0         0         0         0
@Sumon_Early_stream_L1D     16518      5937      3489      2554       797      3268      1388      1118       838       893       507       550
@Sumon_Early_CS_L1D     39775     16896      3338      4996      1113      2467      1797      1140       481       256        74        49
@Sumon_Early_CPLX_L1D      3583      1889       986       390       342      1103       578       669       584       617       350       255
@Sumon_Late_stream_L1D      4373       687        46         8         2         0         0         0         0         0         0         0
@Sumon_Late_CS_L1D      2786       246        62         3         0         0         0         0         0         0         0         0
@Sumon_Late_CPLX_L1D      2343        42        13         1         0         0         0         0         0         0         0         0
@sumon_overall_L2C     17349       487     68148     86916    270299    270299
@Sumon_Early_by_class_L2C      5922      2031      2616         0
@Sumon_Late_by_class_L2C         0        35         0         0

@Sumon_Early_by_cycle_L2C       797       511       561       337       276      1394       989       898       755      1432      1528      7871
@Sumon_Late_by_cycle_L2C       281       197         9         0         0         0         0         0         0         0         0         0
@Sumon_Early_stream_L2C        28        46        55        34        37       199       137       156       202       296       557      4175
@Sumon_Early_CS_L2C        24        26        44        89        48       139       345       204        97        94       145       776
@Sumon_Early_CPLX_L2C         1         5        15         7         7        49        61        83       141       233       306      1708
@Sumon_Late_stream_L2C         0         0         0         0         0         0         0         0         0         0         0         0
@Sumon_Late_CS_L2C         6        27         2         0         0         0         0         0         0         0         0         0
@Sumon_Late_CPLX_L2C         0         0         0         0         0         0         0         0         0         0         0         0
DRAM PAGES: 1048576
Allocated PAGES: 3373
