
*** ChampSim Multicore Out-of-Order Simulator ***

Warmup Instructions: 10000000
Simulation Instructions: 50000000
Number of CPUs: 1
LLC sets: 2048
LLC ways: 16
Off-chip DRAM Size: 4096 MB Channels: 1 Width: 64-bit Data Rate: 6400 MT/s
CPU 0 runs traces/clientserver/client_008.champsimtrace.xz
.xz
CPU 0 Bimodal branch predictor
BTB has LRU replacement policy
ITLB has LRU replacement policy
DTLB has LRU replacement policy
STLB has LRU replacement policy
L1I has LRU replacement policy
IP Table Entries: 256
Initialize DRRIP state for L1D
IP_Table L2 entries: 256
Initialize DRRIP state for L2C
Initialize DRRIP state for LLC
Heartbeat CPU 0 instructions: 10000001 cycles: 3016960 heartbeat IPC: 3.3146 cumulative IPC: 3.3146 (Simulation time: 0 hr 20 min 34 sec) 

Warmup complete CPU 0 instructions: 10000001 cycles: 3016960 (Simulation time: 0 hr 20 min 34 sec) 

Heartbeat CPU 0 instructions: 20000001 cycles: 23589551 heartbeat IPC: 0.486084 cumulative IPC: 0.486084 (Simulation time: 0 hr 38 min 20 sec) 
Heartbeat CPU 0 instructions: 30000003 cycles: 43944923 heartbeat IPC: 0.491271 cumulative IPC: 0.488663 (Simulation time: 0 hr 52 min 53 sec) 
Heartbeat CPU 0 instructions: 40000001 cycles: 63800606 heartbeat IPC: 0.503634 cumulative IPC: 0.493554 (Simulation time: 1 hr 3 min 15 sec) 
Heartbeat CPU 0 instructions: 50000003 cycles: 84261341 heartbeat IPC: 0.488741 cumulative IPC: 0.492342 (Simulation time: 1 hr 13 min 20 sec) 
Heartbeat CPU 0 instructions: 60000000 cycles: 103831740 heartbeat IPC: 0.510976 cumulative IPC: 0.495959 (Simulation time: 1 hr 19 min 7 sec) 
Finished CPU 0 instructions: 50000003 cycles: 100814781 cumulative IPC: 0.495959 (Simulation time: 1 hr 19 min 7 sec) 

ChampSim completed all CPUs

Region of Interest Statistics

CPU 0 cumulative IPC: 0.495959 instructions: 50000003 cycles: 100814781
ITLB TOTAL     ACCESS:    8167689  HIT:    7845840  MISS:     321849  HIT %:    96.0595  MISS %:    3.94051   MPKI: 6.43698
ITLB LOAD TRANSLATION ACCESS:    8167689  HIT:    7845840  MISS:     321849  HIT %:    96.0595  MISS %:    3.94051   MPKI: 6.43698
ITLB PREFETCH  REQUESTED:          0  ISSUED:          0  USEFUL:          0  USELESS:          0
ITLB USEFUL LOAD PREFETCHES:          0 PREFETCH ISSUED TO LOWER LEVEL:          0  ACCURACY: -nan
ITLB TIMELY PREFETCHES:          0 LATE PREFETCHES: 0 DROPPED PREFETCHES: 0
ITLB PREFETCHES SAME FILL-ORIGIN LEVEL: 0 DIFFERENT FILL-ORIGIN LEVEL: 0
ITLB AVERAGE MISS LATENCY: 9.61563 cycles
ITLB RQ	ACCESS:    9600549	FORWARD:          0	MERGED:    1338621	TO_CACHE:    8261928

DTLB TOTAL     ACCESS:   12143881  HIT:   11103543  MISS:    1040338  HIT %:    91.4332  MISS %:    8.56677   MPKI: 20.8068
DTLB LOAD TRANSLATION ACCESS:   12143881  HIT:   11103543  MISS:    1040338  HIT %:    91.4332  MISS %:    8.56677   MPKI: 20.8068
DTLB PREFETCH  REQUESTED:          0  ISSUED:          0  USEFUL:          0  USELESS:          0
DTLB USEFUL LOAD PREFETCHES:          0 PREFETCH ISSUED TO LOWER LEVEL:          0  ACCURACY: -nan
DTLB TIMELY PREFETCHES:          0 LATE PREFETCHES: 0 DROPPED PREFETCHES: 0
DTLB PREFETCHES SAME FILL-ORIGIN LEVEL: 0 DIFFERENT FILL-ORIGIN LEVEL: 0
DTLB AVERAGE MISS LATENCY: 9.57917 cycles
DTLB RQ	ACCESS:   13793568	FORWARD:          0	MERGED:    1616334	TO_CACHE:   12177234

STLB TOTAL     ACCESS:    2014868  HIT:    2004206  MISS:      10662  HIT %:    99.4708  MISS %:   0.529166   MPKI: 0.21324
STLB LOAD TRANSLATION ACCESS:    1362186  HIT:    1351524  MISS:      10662  HIT %:    99.2173  MISS %:   0.782712   MPKI: 0.21324
STLB TRANSLATION FROM L1D PREFETCHER ACCESS:     652682  HIT:     652682  MISS:          0  HIT %:        100  MISS %:          0   MPKI: 0
STLB PREFETCH  REQUESTED:          0  ISSUED:          0  USEFUL:          0  USELESS:          0
STLB USEFUL LOAD PREFETCHES:          0 PREFETCH ISSUED TO LOWER LEVEL:          0  ACCURACY: -nan
STLB TIMELY PREFETCHES:          0 LATE PREFETCHES: 0 DROPPED PREFETCHES: 0
STLB PREFETCHES SAME FILL-ORIGIN LEVEL: 0 DIFFERENT FILL-ORIGIN LEVEL: 0
STLB AVERAGE MISS LATENCY: 72.0851 cycles
STLB RQ	ACCESS:    2151818	FORWARD:          0	MERGED:     136950	TO_CACHE:    2014868

STLB Hit, L1D data hit: 0
STLB Hit, L2C data hit: 0
STLB Hit, LLC data hit: 0
STLB Hit, LLC data miss: 0
STLB STLB hints to L2: 0
L1D TOTAL     ACCESS:   14358998  HIT:   12939885  MISS:    1419113  HIT %:    90.1169  MISS %:    9.88309   MPKI: 28.3823
L1D LOAD      ACCESS:   10607671  HIT:    9579337  MISS:    1028334  HIT %:    90.3058  MISS %:    9.69425   MPKI: 20.5667
L1D RFO       ACCESS:    2983630  HIT:    2929142  MISS:      54488  HIT %:    98.1738  MISS %:    1.82623   MPKI: 1.08976
L1D PREFETCH  ACCESS:     767697  HIT:     431406  MISS:     336291  HIT %:    56.1948  MISS %:    43.8052   MPKI: 6.72582
L1D PREFETCH  REQUESTED:    1579298  ISSUED:    1579298  USEFUL:      26531  USELESS:     309759
L1D USEFUL LOAD PREFETCHES:      26531 PREFETCH ISSUED TO LOWER LEVEL:     340253  ACCURACY: 7.79743
L1D TIMELY PREFETCHES:      26531 LATE PREFETCHES: 3881 DROPPED PREFETCHES: 0
L1D PREFETCHES SAME FILL-ORIGIN LEVEL: 340253 DIFFERENT FILL-ORIGIN LEVEL: 0
L1D AVERAGE MISS LATENCY: 167492 cycles
L1D RQ	ACCESS:   15220702	FORWARD:          0	MERGED:    4418897	TO_CACHE:   10668608
L1D WQ	ACCESS:    3175977	FORWARD:     133231	MERGED:      51017	TO_CACHE:    3124960
L1D PQ	ACCESS:     789666	FORWARD:          0	MERGED:          0	TO_CACHE:     789632

L1D UNIQUE REGIONS ACCESSED: 0
L1D REGIONS CONFLICTS: 0
L1D Cross Page Prefetch Requests: 0
L1D Same Page Prefetch Requests: 946058
L1D ROI Sum of L1D PQ occupancy: 10226996
L1D PREFETCHES PUSHED FROM L2C: 0
L1I TOTAL     ACCESS:    9214068  HIT:    7674752  MISS:    1539316  HIT %:    83.2939  MISS %:    16.7061   MPKI: 30.7863
L1I LOAD      ACCESS:    9214068  HIT:    7674752  MISS:    1539316  HIT %:    83.2939  MISS %:    16.7061   MPKI: 30.7863
L1I PREFETCH  REQUESTED:          0  ISSUED:          0  USEFUL:          0  USELESS:          0
L1I USEFUL LOAD PREFETCHES:          0 PREFETCH ISSUED TO LOWER LEVEL:          0  ACCURACY: -nan
L1I TIMELY PREFETCHES:          0 LATE PREFETCHES: 0 DROPPED PREFETCHES: 0
L1I PREFETCHES SAME FILL-ORIGIN LEVEL: 0 DIFFERENT FILL-ORIGIN LEVEL: 0
L1I AVERAGE MISS LATENCY: 18.2629 cycles
L1I RQ	ACCESS:   14245742	FORWARD:          0	MERGED:    4645193	TO_CACHE:    9600549

BTB TOTAL     ACCESS:    6931543  HIT:    5917370  MISS:    1014173  HIT %:    85.3687  MISS %:    14.6313   MPKI: 20.2835
BTB BRANCH_DIRECT_JUMP	ACCESS:     559531  HIT:     536331  MISS:      23200
BTB BRANCH_INDIRECT	ACCESS:     465173  HIT:     328917  MISS:     136256
BTB BRANCH_CONDITIONAL	ACCESS:    3922405  HIT:    3818065  MISS:     104340
BTB BRANCH_DIRECT_CALL	ACCESS:     312096  HIT:     299015  MISS:      13081
BTB BRANCH_INDIRECT_CALL	ACCESS:     680110  HIT:     575756  MISS:     104354
BTB BRANCH_RETURN	ACCESS:     992228  HIT:     359286  MISS:     632942
BTB BRANCH_OTHER ACCESS:          0  HIT:          0  MISS:          0

L2C TOTAL     ACCESS:    3814112  HIT:    3363511  MISS:     450601  HIT %:     88.186  MISS %:     11.814   MPKI: 9.01202
L2C LOAD      ACCESS:    2563755  HIT:    2311439  MISS:     252316  HIT %:    90.1583  MISS %:    9.84166   MPKI: 5.04632
L2C DATA LOAD MPKI: 2.05064
L2C INSTRUCTION LOAD MPKI: 2.99568
L2C RFO       ACCESS:      54386  HIT:      22934  MISS:      31452  HIT %:    42.1689  MISS %:    57.8311   MPKI: 0.62904
L2C PREFETCH  ACCESS:    1108333  HIT:     953040  MISS:     155293  HIT %:    85.9886  MISS %:    14.0114   MPKI: 3.10586
L2C DATA PREFETCH MPKI: 3.10586
L2C INSTRUCTION PREFETCH MPKI: 0
L2C WRITEBACK ACCESS:      76351  HIT:      70107  MISS:       6244  HIT %:     91.822  MISS %:    8.17802   MPKI: 0.12488
L2C LOAD TRANSLATION ACCESS:      11287  HIT:       5991  MISS:       5296  HIT %:    53.0788  MISS %:    46.9212   MPKI: 0.10592
L2C PREFETCH  REQUESTED:     784854  ISSUED:     784854  USEFUL:      29517  USELESS:     126033
L2C USEFUL LOAD PREFETCHES:      29517 PREFETCH ISSUED TO LOWER LEVEL:     158861  ACCURACY: 18.5804
L2C TIMELY PREFETCHES:      29517 LATE PREFETCHES: 3568 DROPPED PREFETCHES: 0
L2C PREFETCHES SAME FILL-ORIGIN LEVEL: 84275 DIFFERENT FILL-ORIGIN LEVEL: 0
L2C AVERAGE MISS LATENCY: 62.0273 cycles
L2C RQ	ACCESS:    2629464	FORWARD:          0	MERGED:          0	TO_CACHE:    2629429
L2C WQ	ACCESS:      76351	FORWARD:         36	MERGED:          0	TO_CACHE:      76351
L2C PQ	ACCESS:    1125107	FORWARD:          0	MERGED:       7494	TO_CACHE:    1117612

L2C Instructions Evicting Data 93794
L2C Translations Evicting Data 3414
L2C Data Evicting Data 193890
L2C Instructions Evicting Instructions 54189
L2C Translations Evicting Instructions 1796
L2C Data Evicting Instructions 92165
L2C Instructions Evicting Translations 1801
L2C Translations Evicting Translations 86
L2C Data Evicting Translations 3222
L2C Dense regions hint from L2: 0
PSCL5 TOTAL     ACCESS:      10662  HIT:      10662  MISS:          0  HIT %:        100  MISS %:          0   MPKI: 0
PSCL5 LOAD TRANSLATION ACCESS:      10662  HIT:      10662  MISS:          0  HIT %:        100  MISS %:          0   MPKI: 0
PSCL5 PREFETCH  REQUESTED:          0  ISSUED:          0  USEFUL:          0  USELESS:          0
PSCL5 USEFUL LOAD PREFETCHES:          0 PREFETCH ISSUED TO LOWER LEVEL:          0  ACCURACY: -nan
PSCL5 TIMELY PREFETCHES:          0 LATE PREFETCHES: 0 DROPPED PREFETCHES: 0
PSCL5 PREFETCHES SAME FILL-ORIGIN LEVEL: 0 DIFFERENT FILL-ORIGIN LEVEL: 0

PSCL4 TOTAL     ACCESS:      10662  HIT:      10662  MISS:          0  HIT %:        100  MISS %:          0   MPKI: 0
PSCL4 LOAD TRANSLATION ACCESS:      10662  HIT:      10662  MISS:          0  HIT %:        100  MISS %:          0   MPKI: 0
PSCL4 PREFETCH  REQUESTED:          0  ISSUED:          0  USEFUL:          0  USELESS:          0
PSCL4 USEFUL LOAD PREFETCHES:          0 PREFETCH ISSUED TO LOWER LEVEL:          0  ACCURACY: -nan
PSCL4 TIMELY PREFETCHES:          0 LATE PREFETCHES: 0 DROPPED PREFETCHES: 0
PSCL4 PREFETCHES SAME FILL-ORIGIN LEVEL: 0 DIFFERENT FILL-ORIGIN LEVEL: 0

PSCL3 TOTAL     ACCESS:      10656  HIT:      10644  MISS:         12  HIT %:    99.8874  MISS %:   0.112613   MPKI: 0.00024
PSCL3 LOAD TRANSLATION ACCESS:      10656  HIT:      10644  MISS:         12  HIT %:    99.8874  MISS %:   0.112613   MPKI: 0.00024
PSCL3 PREFETCH  REQUESTED:          0  ISSUED:          0  USEFUL:          0  USELESS:          0
PSCL3 USEFUL LOAD PREFETCHES:          0 PREFETCH ISSUED TO LOWER LEVEL:          0  ACCURACY: -nan
PSCL3 TIMELY PREFETCHES:          0 LATE PREFETCHES: 0 DROPPED PREFETCHES: 0
PSCL3 PREFETCHES SAME FILL-ORIGIN LEVEL: 0 DIFFERENT FILL-ORIGIN LEVEL: 0

PSCL2 TOTAL     ACCESS:      10662  HIT:      10040  MISS:        622  HIT %:    94.1662  MISS %:     5.8338   MPKI: 0.01244
PSCL2 LOAD TRANSLATION ACCESS:      10662  HIT:      10040  MISS:        622  HIT %:    94.1662  MISS %:     5.8338   MPKI: 0.01244
PSCL2 PREFETCH  REQUESTED:          0  ISSUED:          0  USEFUL:          0  USELESS:          0
PSCL2 USEFUL LOAD PREFETCHES:          0 PREFETCH ISSUED TO LOWER LEVEL:          0  ACCURACY: -nan
PSCL2 TIMELY PREFETCHES:          0 LATE PREFETCHES: 0 DROPPED PREFETCHES: 0
PSCL2 PREFETCHES SAME FILL-ORIGIN LEVEL: 0 DIFFERENT FILL-ORIGIN LEVEL: 0

LLC TOTAL     ACCESS:     486971  HIT:     386053  MISS:     100918  HIT %:    79.2764  MISS %:    20.7236   MPKI: 2.01836
LLC LOAD      ACCESS:     248771  HIT:     214726  MISS:      34045  HIT %:    86.3147  MISS %:    13.6853   MPKI: 0.6809
LLC RFO       ACCESS:      31429  HIT:       3970  MISS:      27459  HIT %:    12.6316  MISS %:    87.3684   MPKI: 0.54918
LLC PREFETCH  ACCESS:     158861  HIT:     120957  MISS:      37904  HIT %:    76.1401  MISS %:    23.8599   MPKI: 0.75808
LLC WRITEBACK ACCESS:      42614  HIT:      41995  MISS:        619  HIT %:    98.5474  MISS %:    1.45257   MPKI: 0.01238
LLC LOAD TRANSLATION ACCESS:       5296  HIT:       4405  MISS:        891  HIT %:     83.176  MISS %:     16.824   MPKI: 0.01782
LLC PREFETCH  REQUESTED:          0  ISSUED:          0  USEFUL:       2611  USELESS:      34575
LLC USEFUL LOAD PREFETCHES:       2611 PREFETCH ISSUED TO LOWER LEVEL:      37904  ACCURACY: 6.88846
LLC TIMELY PREFETCHES:       2611 LATE PREFETCHES: 0 DROPPED PREFETCHES: 0
LLC PREFETCHES SAME FILL-ORIGIN LEVEL: 0 DIFFERENT FILL-ORIGIN LEVEL: 0
LLC AVERAGE MISS LATENCY: 144.955 cycles
LLC RQ	ACCESS:     285496	FORWARD:          0	MERGED:          0	TO_CACHE:     285496
LLC WQ	ACCESS:      42614	FORWARD:          0	MERGED:          0	TO_CACHE:      42614
LLC PQ	ACCESS:     158861	FORWARD:          0	MERGED:          0	TO_CACHE:     158861

LLC Dense regions hint to LLC: 0

RAW hits: 713408
Loads Generated: 15934110
Loads sent to L1D: 15220702
Stores Generated: 3175979
Stores sent to L1D: 3175977
Major fault: 0 Minor fault: 3885
Allocated PAGES: 3885

stream: 
stream:times selected: 1364211
stream:pref_filled: 275758
stream:pref_useful: 22852
stream:pref_late: 2659
stream:misses: 55443
stream:misses_by_poll: 0

CS: 
CS:times selected: 40232
CS:pref_filled: 6446
CS:pref_useful: 4019
CS:pref_late: 317
CS:misses: 955
CS:misses_by_poll: 8

CPLX: 
CPLX:times selected: 1342346
CPLX:pref_filled: 110749
CPLX:pref_useful: 4059
CPLX:pref_late: 69
CPLX:misses: 128756
CPLX:misses_by_poll: 23

NL_L1: 
NL:times selected: 3229
NL:pref_filled: 1758
NL:pref_useful: 300
NL:pref_late: 18
NL:misses: 578
NL:misses_by_poll: 0

total selections: 2750018
total_filled: 336291
total_useful: 26531
total_late: 4057
total_polluted: 31
total_misses_after_warmup: 1089272
conflicts: 3369665
Degree Incremented Times: 0
Degree Decremented Times: 219338

L1 IP Table Write Accesses: 6645554
L1 IP Table Read Accesses: 3275889
L1 RST Write Accesses: 1135512
L1 RST Read Accesses: 2271024
L1 CSPT Write Accesses: 1135512
L1 CSPT Read Accesses: 2252899
L1 RR Filter Tag Write Accesses: 789666
L1 RR Filter Tag Read Accesses: 38615866
L1 IP Table Tag Write Accesses: 10668609
L1 IP Table Tag Read Accesses: 10668609
L1 RST Tag Write Accesses: 0
L1 RST Tag Read Accesses: 11185591
L1 RR Filter Write Accesses: 0
L1 RR Filter Read Accesses: 1457875
test: 936414
L2 IP Table Read Accesses: 1915223
L2 IP Table Write Accesses: 2344221
L2 IP Table Tag Read Accesses: 1355773
L2 IP Table Tag Write Accesses: 1355773

DRAM Statistics
 CHANNEL 0
 RQ ROW_BUFFER_HIT:      27050  ROW_BUFFER_MISS:      73249
 DBUS_CONGESTED:         51
 WQ ROW_BUFFER_HIT:       6019  ROW_BUFFER_MISS:      27952  FULL:          0

 AVG_CONGESTED_CYCLE: 4
 All warmup complete: 2
Channel 0 Bank busy for read cycles: 0
Channel 0 Bank busy for write cycles: 0
Channel 0
Rank 0
0banks busy for read cycles: 87535556
0banks busy for write cycles: 20966
1banks busy for read cycles: 6576768
1banks busy for write cycles: 3014592
2banks busy for read cycles: 1817361
2banks busy for write cycles: 719411
3banks busy for read cycles: 418518
3banks busy for write cycles: 210961
4banks busy for read cycles: 129826
4banks busy for write cycles: 90191
5banks busy for read cycles: 55329
5banks busy for write cycles: 50975
6banks busy for read cycles: 5345
6banks busy for write cycles: 35687
7banks busy for read cycles: 2142
7banks busy for write cycles: 30877
8banks busy for read cycles: 3762
8banks busy for write cycles: 96515

CPU 0 Branch Prediction Accuracy: 95.1378% MPKI: 11.6522 Average ROB Occupancy at Mispredict: 32.6979
Branch types
NOT_BRANCH: 38017070 76.0341%
BRANCH_DIRECT_JUMP: 559531 1.11906%
BRANCH_INDIRECT: 465173 0.930346%
BRANCH_CONDITIONAL: 8973461 17.9469%
BRANCH_DIRECT_CALL: 312096 0.624192%
BRANCH_INDIRECT_CALL: 680110 1.36022%
BRANCH_RETURN: 992228 1.98446%
BRANCH_OTHER: 0 0%

@sumon_overall_L1D     26531      3881    309759    336291   1579298   1579298
@Sumon_Early_by_class_L1D     18577      3458      3400        15
@Sumon_Late_by_class_L1D      2536       294        65        15

@Sumon_Early_by_cycle_L1D      4804      3256      3035      2450      2103      4855      1852      1109      1064       987       536       480
@Sumon_Late_by_cycle_L1D      3165       706        10         0         0         0         0         0         0         0         0         0
@Sumon_Early_stream_L1D      3421      2346      2100      1780      1426      3197      1261       755       712       739       436       404
@Sumon_Early_CS_L1D       516       465       411       373       397       934       284        62         8         4         3         1
@Sumon_Early_CPLX_L1D       506       328       410       266       212       480       278       268       271       228        86        67
@Sumon_Late_stream_L1D      1985       544         7         0         0         0         0         0         0         0         0         0
@Sumon_Late_CS_L1D       174       118         2         0         0         0         0         0         0         0         0         0
@Sumon_Late_CPLX_L1D        40        25         0         0         0         0         0         0         0         0         0         0
@sumon_overall_L2C     29517      3568    126033    155293    784854    784854
@Sumon_Early_by_class_L2C      2196       176      1034         0
@Sumon_Late_by_class_L2C         0         0         0         0

@Sumon_Early_by_cycle_L2C      5551      3987      5561      1763       619      1746      1556      1347      1016      1057       919      4395
@Sumon_Late_by_cycle_L2C      3243       322         3         0         0         0         0         0         0         0         0         0
@Sumon_Early_stream_L2C         3        14        16        22        49       177       132       116       142       230       227      1068
@Sumon_Early_CS_L2C         1         3         3         7        15        39        50        21         6         6         8        17
@Sumon_Early_CPLX_L2C         0         2         3         4         6        18        11        38        67       126       164       595
@Sumon_Late_stream_L2C         0         0         0         0         0         0         0         0         0         0         0         0
@Sumon_Late_CS_L2C         0         0         0         0         0         0         0         0         0         0         0         0
@Sumon_Late_CPLX_L2C         0         0         0         0         0         0         0         0         0         0         0         0
DRAM PAGES: 1048576
Allocated PAGES: 3885
