
*** ChampSim Multicore Out-of-Order Simulator ***

Warmup Instructions: 10000000
Simulation Instructions: 50000000
Number of CPUs: 1
LLC sets: 2048
LLC ways: 16
Off-chip DRAM Size: 4096 MB Channels: 1 Width: 64-bit Data Rate: 6400 MT/s
CPU 0 runs traces/clientserver/server_037.champsimtrace.xz
.xz
CPU 0 Bimodal branch predictor
BTB has LRU replacement policy
ITLB has LRU replacement policy
DTLB has LRU replacement policy
STLB has LRU replacement policy
L1I has LRU replacement policy
IP Table Entries: 256
Initialize DRRIP state for L1D
IP_Table L2 entries: 256
Initialize DRRIP state for L2C
Initialize DRRIP state for LLC
Heartbeat CPU 0 instructions: 10000000 cycles: 2752518 heartbeat IPC: 3.63304 cumulative IPC: 3.63304 (Simulation time: 0 hr 17 min 50 sec) 

Warmup complete CPU 0 instructions: 10000004 cycles: 2752519 (Simulation time: 0 hr 17 min 50 sec) 

Heartbeat CPU 0 instructions: 20000001 cycles: 20712310 heartbeat IPC: 0.556799 cumulative IPC: 0.556799 (Simulation time: 0 hr 33 min 42 sec) 
Heartbeat CPU 0 instructions: 30000000 cycles: 38383776 heartbeat IPC: 0.565884 cumulative IPC: 0.561305 (Simulation time: 0 hr 48 min 35 sec) 
Heartbeat CPU 0 instructions: 40000000 cycles: 56306616 heartbeat IPC: 0.557947 cumulative IPC: 0.560181 (Simulation time: 0 hr 58 min 28 sec) 
Heartbeat CPU 0 instructions: 50000000 cycles: 74129545 heartbeat IPC: 0.561075 cumulative IPC: 0.560404 (Simulation time: 1 hr 7 min 24 sec) 
Heartbeat CPU 0 instructions: 60000001 cycles: 91969416 heartbeat IPC: 0.560542 cumulative IPC: 0.560432 (Simulation time: 1 hr 16 min 0 sec) 
Finished CPU 0 instructions: 50000001 cycles: 89216904 cumulative IPC: 0.560432 (Simulation time: 1 hr 16 min 0 sec) 

ChampSim completed all CPUs

Region of Interest Statistics

CPU 0 cumulative IPC: 0.560432 instructions: 50000001 cycles: 89216904
ITLB TOTAL     ACCESS:    8847834  HIT:    8220868  MISS:     626966  HIT %:    92.9139  MISS %:     7.0861   MPKI: 12.5393
ITLB LOAD TRANSLATION ACCESS:    8847834  HIT:    8220868  MISS:     626966  HIT %:    92.9139  MISS %:     7.0861   MPKI: 12.5393
ITLB PREFETCH  REQUESTED:          0  ISSUED:          0  USEFUL:          0  USELESS:          0
ITLB USEFUL LOAD PREFETCHES:          0 PREFETCH ISSUED TO LOWER LEVEL:          0  ACCURACY: -nan
ITLB TIMELY PREFETCHES:          0 LATE PREFETCHES: 0 DROPPED PREFETCHES: 0
ITLB PREFETCHES SAME FILL-ORIGIN LEVEL: 0 DIFFERENT FILL-ORIGIN LEVEL: 0
ITLB AVERAGE MISS LATENCY: 9.05208 cycles
ITLB RQ	ACCESS:   10657248	FORWARD:          0	MERGED:    1615088	TO_CACHE:    9042160

DTLB TOTAL     ACCESS:   10855110  HIT:   10333112  MISS:     521998  HIT %:    95.1912  MISS %:    4.80878   MPKI: 10.44
DTLB LOAD TRANSLATION ACCESS:   10855110  HIT:   10333112  MISS:     521998  HIT %:    95.1912  MISS %:    4.80878   MPKI: 10.44
DTLB PREFETCH  REQUESTED:          0  ISSUED:          0  USEFUL:          0  USELESS:          0
DTLB USEFUL LOAD PREFETCHES:          0 PREFETCH ISSUED TO LOWER LEVEL:          0  ACCURACY: -nan
DTLB TIMELY PREFETCHES:          0 LATE PREFETCHES: 0 DROPPED PREFETCHES: 0
DTLB PREFETCHES SAME FILL-ORIGIN LEVEL: 0 DIFFERENT FILL-ORIGIN LEVEL: 0
DTLB AVERAGE MISS LATENCY: 10.1995 cycles
DTLB RQ	ACCESS:   14429279	FORWARD:          0	MERGED:    3535491	TO_CACHE:   10893788

STLB TOTAL     ACCESS:    1268720  HIT:    1262887  MISS:       5833  HIT %:    99.5402  MISS %:   0.459755   MPKI: 0.11666
STLB LOAD TRANSLATION ACCESS:    1148963  HIT:    1143130  MISS:       5833  HIT %:    99.4923  MISS %:   0.507675   MPKI: 0.11666
STLB TRANSLATION FROM L1D PREFETCHER ACCESS:     119757  HIT:     119757  MISS:          0  HIT %:        100  MISS %:          0   MPKI: 0
STLB PREFETCH  REQUESTED:          0  ISSUED:          0  USEFUL:          0  USELESS:          0
STLB USEFUL LOAD PREFETCHES:          0 PREFETCH ISSUED TO LOWER LEVEL:          0  ACCURACY: -nan
STLB TIMELY PREFETCHES:          0 LATE PREFETCHES: 0 DROPPED PREFETCHES: 0
STLB PREFETCHES SAME FILL-ORIGIN LEVEL: 0 DIFFERENT FILL-ORIGIN LEVEL: 0
STLB AVERAGE MISS LATENCY: 109.753 cycles
STLB RQ	ACCESS:    1358780	FORWARD:          0	MERGED:      90060	TO_CACHE:    1268720

STLB Hit, L1D data hit: 0
STLB Hit, L2C data hit: 0
STLB Hit, LLC data hit: 0
STLB Hit, LLC data miss: 0
STLB STLB hints to L2: 0
L1D TOTAL     ACCESS:   14540032  HIT:   14020787  MISS:     519245  HIT %:    96.4289  MISS %:    3.57114   MPKI: 10.3849
L1D LOAD      ACCESS:    8067218  HIT:    7678534  MISS:     388684  HIT %:    95.1819  MISS %:    4.81807   MPKI: 7.77368
L1D RFO       ACCESS:    6270137  HIT:    6207143  MISS:      62994  HIT %:    98.9953  MISS %:    1.00467   MPKI: 1.25988
L1D PREFETCH  ACCESS:     202677  HIT:     135110  MISS:      67567  HIT %:    66.6627  MISS %:    33.3373   MPKI: 1.35134
L1D PREFETCH  REQUESTED:     419740  ISSUED:     419667  USEFUL:      13124  USELESS:      54443
L1D USEFUL LOAD PREFETCHES:      13124 PREFETCH ISSUED TO LOWER LEVEL:      68291  ACCURACY: 19.2178
L1D TIMELY PREFETCHES:      13124 LATE PREFETCHES: 719 DROPPED PREFETCHES: 0
L1D PREFETCHES SAME FILL-ORIGIN LEVEL: 68291 DIFFERENT FILL-ORIGIN LEVEL: 0
L1D AVERAGE MISS LATENCY: 61994.1 cycles
L1D RQ	ACCESS:   11770506	FORWARD:          0	MERGED:    3513061	TO_CACHE:    8087292
L1D WQ	ACCESS:    6389167	FORWARD:     170186	MERGED:      47180	TO_CACHE:    6341987
L1D PQ	ACCESS:     209850	FORWARD:          0	MERGED:          0	TO_CACHE:     209817

L1D UNIQUE REGIONS ACCESSED: 0
L1D REGIONS CONFLICTS: 0
L1D Cross Page Prefetch Requests: 0
L1D Same Page Prefetch Requests: 246200
L1D ROI Sum of L1D PQ occupancy: 2716296
L1D PREFETCHES PUSHED FROM L2C: 0
L1I TOTAL     ACCESS:    9639649  HIT:    5643142  MISS:    3996507  HIT %:    58.5409  MISS %:    41.4591   MPKI: 79.9301
L1I LOAD      ACCESS:    9639649  HIT:    5643142  MISS:    3996507  HIT %:    58.5409  MISS %:    41.4591   MPKI: 79.9301
L1I PREFETCH  REQUESTED:          0  ISSUED:          0  USEFUL:          0  USELESS:          0
L1I USEFUL LOAD PREFETCHES:          0 PREFETCH ISSUED TO LOWER LEVEL:          0  ACCURACY: -nan
L1I TIMELY PREFETCHES:          0 LATE PREFETCHES: 0 DROPPED PREFETCHES: 0
L1I PREFETCHES SAME FILL-ORIGIN LEVEL: 0 DIFFERENT FILL-ORIGIN LEVEL: 0
L1I AVERAGE MISS LATENCY: 14.1512 cycles
L1I RQ	ACCESS:   14762863	FORWARD:          0	MERGED:    4105615	TO_CACHE:   10657248

BTB TOTAL     ACCESS:    5416946  HIT:    4897168  MISS:     519778  HIT %:    90.4046  MISS %:    9.59541   MPKI: 10.3956
BTB BRANCH_DIRECT_JUMP	ACCESS:     540054  HIT:     527588  MISS:      12466
BTB BRANCH_INDIRECT	ACCESS:      59163  HIT:      59065  MISS:         98
BTB BRANCH_CONDITIONAL	ACCESS:    2342991  HIT:    2302512  MISS:      40479
BTB BRANCH_DIRECT_CALL	ACCESS:    1004108  HIT:     967236  MISS:      36872
BTB BRANCH_INDIRECT_CALL	ACCESS:     233270  HIT:     188049  MISS:      45221
BTB BRANCH_RETURN	ACCESS:    1237360  HIT:     852718  MISS:     384642
BTB BRANCH_OTHER ACCESS:          0  HIT:          0  MISS:          0

L2C TOTAL     ACCESS:    5054441  HIT:    4827479  MISS:     226962  HIT %:    95.5097  MISS %:    4.49035   MPKI: 4.53924
L2C LOAD      ACCESS:    4384471  HIT:    4276627  MISS:     107844  HIT %:    97.5403  MISS %:    2.45968   MPKI: 2.15688
L2C DATA LOAD MPKI: 2.0511
L2C INSTRUCTION LOAD MPKI: 0.10578
L2C RFO       ACCESS:      62994  HIT:      33984  MISS:      29010  HIT %:     53.948  MISS %:     46.052   MPKI: 0.5802
L2C PREFETCH  ACCESS:     373044  HIT:     303069  MISS:      69975  HIT %:    81.2422  MISS %:    18.7578   MPKI: 1.3995
L2C DATA PREFETCH MPKI: 1.3995
L2C INSTRUCTION PREFETCH MPKI: 0
L2C WRITEBACK ACCESS:     225851  HIT:     211118  MISS:      14733  HIT %:    93.4767  MISS %:    6.52333   MPKI: 0.29466
L2C LOAD TRANSLATION ACCESS:       8081  HIT:       2681  MISS:       5400  HIT %:    33.1766  MISS %:    66.8234   MPKI: 0.108
L2C PREFETCH  REQUESTED:     323577  ISSUED:     323576  USEFUL:      24118  USELESS:      46131
L2C USEFUL LOAD PREFETCHES:      24118 PREFETCH ISSUED TO LOWER LEVEL:      71056  ACCURACY: 33.9422
L2C TIMELY PREFETCHES:      24118 LATE PREFETCHES: 1081 DROPPED PREFETCHES: 0
L2C PREFETCHES SAME FILL-ORIGIN LEVEL: 59045 DIFFERENT FILL-ORIGIN LEVEL: 0
L2C AVERAGE MISS LATENCY: 49.0708 cycles
L2C RQ	ACCESS:    4455548	FORWARD:          0	MERGED:          0	TO_CACHE:    4455546
L2C WQ	ACCESS:     225851	FORWARD:          6	MERGED:          0	TO_CACHE:     225851
L2C PQ	ACCESS:     391862	FORWARD:          0	MERGED:       8550	TO_CACHE:     383308

L2C Instructions Evicting Data 4719
L2C Translations Evicting Data 5088
L2C Data Evicting Data 192183
L2C Instructions Evicting Instructions 455
L2C Translations Evicting Instructions 133
L2C Data Evicting Instructions 4446
L2C Instructions Evicting Translations 115
L2C Translations Evicting Translations 177
L2C Data Evicting Translations 4894
L2C Dense regions hint from L2: 0
PSCL5 TOTAL     ACCESS:       5833  HIT:       5833  MISS:          0  HIT %:        100  MISS %:          0   MPKI: 0
PSCL5 LOAD TRANSLATION ACCESS:       5833  HIT:       5833  MISS:          0  HIT %:        100  MISS %:          0   MPKI: 0
PSCL5 PREFETCH  REQUESTED:          0  ISSUED:          0  USEFUL:          0  USELESS:          0
PSCL5 USEFUL LOAD PREFETCHES:          0 PREFETCH ISSUED TO LOWER LEVEL:          0  ACCURACY: -nan
PSCL5 TIMELY PREFETCHES:          0 LATE PREFETCHES: 0 DROPPED PREFETCHES: 0
PSCL5 PREFETCHES SAME FILL-ORIGIN LEVEL: 0 DIFFERENT FILL-ORIGIN LEVEL: 0

PSCL4 TOTAL     ACCESS:       5833  HIT:       5833  MISS:          0  HIT %:        100  MISS %:          0   MPKI: 0
PSCL4 LOAD TRANSLATION ACCESS:       5833  HIT:       5833  MISS:          0  HIT %:        100  MISS %:          0   MPKI: 0
PSCL4 PREFETCH  REQUESTED:          0  ISSUED:          0  USEFUL:          0  USELESS:          0
PSCL4 USEFUL LOAD PREFETCHES:          0 PREFETCH ISSUED TO LOWER LEVEL:          0  ACCURACY: -nan
PSCL4 TIMELY PREFETCHES:          0 LATE PREFETCHES: 0 DROPPED PREFETCHES: 0
PSCL4 PREFETCHES SAME FILL-ORIGIN LEVEL: 0 DIFFERENT FILL-ORIGIN LEVEL: 0

PSCL3 TOTAL     ACCESS:       5809  HIT:       5779  MISS:         30  HIT %:    99.4836  MISS %:    0.51644   MPKI: 0.0006
PSCL3 LOAD TRANSLATION ACCESS:       5809  HIT:       5779  MISS:         30  HIT %:    99.4836  MISS %:    0.51644   MPKI: 0.0006
PSCL3 PREFETCH  REQUESTED:          0  ISSUED:          0  USEFUL:          0  USELESS:          0
PSCL3 USEFUL LOAD PREFETCHES:          0 PREFETCH ISSUED TO LOWER LEVEL:          0  ACCURACY: -nan
PSCL3 TIMELY PREFETCHES:          0 LATE PREFETCHES: 0 DROPPED PREFETCHES: 0
PSCL3 PREFETCHES SAME FILL-ORIGIN LEVEL: 0 DIFFERENT FILL-ORIGIN LEVEL: 0

PSCL2 TOTAL     ACCESS:       5833  HIT:       3588  MISS:       2245  HIT %:    61.5121  MISS %:    38.4879   MPKI: 0.0449
PSCL2 LOAD TRANSLATION ACCESS:       5833  HIT:       3588  MISS:       2245  HIT %:    61.5121  MISS %:    38.4879   MPKI: 0.0449
PSCL2 PREFETCH  REQUESTED:          0  ISSUED:          0  USEFUL:          0  USELESS:          0
PSCL2 USEFUL LOAD PREFETCHES:          0 PREFETCH ISSUED TO LOWER LEVEL:          0  ACCURACY: -nan
PSCL2 TIMELY PREFETCHES:          0 LATE PREFETCHES: 0 DROPPED PREFETCHES: 0
PSCL2 PREFETCHES SAME FILL-ORIGIN LEVEL: 0 DIFFERENT FILL-ORIGIN LEVEL: 0

LLC TOTAL     ACCESS:     329360  HIT:     298417  MISS:      30943  HIT %:    90.6051  MISS %:    9.39489   MPKI: 0.61886
LLC LOAD      ACCESS:     106763  HIT:      91781  MISS:      14982  HIT %:     85.967  MISS %:     14.033   MPKI: 0.29964
LLC RFO       ACCESS:      29009  HIT:      23140  MISS:       5869  HIT %:    79.7683  MISS %:    20.2317   MPKI: 0.11738
LLC PREFETCH  ACCESS:      71056  HIT:      61570  MISS:       9486  HIT %:      86.65  MISS %:      13.35   MPKI: 0.18972
LLC WRITEBACK ACCESS:     117132  HIT:     117024  MISS:        108  HIT %:    99.9078  MISS %:  0.0922037   MPKI: 0.00216
LLC LOAD TRANSLATION ACCESS:       5400  HIT:       4902  MISS:        498  HIT %:    90.7778  MISS %:    9.22222   MPKI: 0.00996
LLC PREFETCH  REQUESTED:          0  ISSUED:          0  USEFUL:        507  USELESS:       4797
LLC USEFUL LOAD PREFETCHES:        507 PREFETCH ISSUED TO LOWER LEVEL:       9486  ACCURACY: 5.34472
LLC TIMELY PREFETCHES:        507 LATE PREFETCHES: 0 DROPPED PREFETCHES: 0
LLC PREFETCHES SAME FILL-ORIGIN LEVEL: 0 DIFFERENT FILL-ORIGIN LEVEL: 0
LLC AVERAGE MISS LATENCY: 154.302 cycles
LLC RQ	ACCESS:     141173	FORWARD:          0	MERGED:          0	TO_CACHE:     141172
LLC WQ	ACCESS:     117132	FORWARD:          1	MERGED:          0	TO_CACHE:     117132
LLC PQ	ACCESS:      71056	FORWARD:          0	MERGED:          0	TO_CACHE:      71056

LLC Dense regions hint to LLC: 0

RAW hits: 716033
Loads Generated: 12486539
Loads sent to L1D: 11770506
Stores Generated: 6389161
Stores sent to L1D: 6389167
Major fault: 0 Minor fault: 4736
Allocated PAGES: 4736

stream: 
stream:times selected: 195344
stream:pref_filled: 40949
stream:pref_useful: 7694
stream:pref_late: 276
stream:misses: 454
stream:misses_by_poll: 0

CS: 
CS:times selected: 4708
CS:pref_filled: 2197
CS:pref_useful: 2055
CS:pref_late: 517
CS:misses: 693
CS:misses_by_poll: 0

CPLX: 
CPLX:times selected: 186162
CPLX:pref_filled: 31946
CPLX:pref_useful: 4735
CPLX:pref_late: 120
CPLX:misses: 4041
CPLX:misses_by_poll: 1

NL_L1: 
NL:times selected: 2678
NL:pref_filled: 754
NL:pref_useful: 1
NL:pref_late: 0
NL:misses: 19
NL:misses_by_poll: 0

total selections: 388892
total_filled: 67567
total_useful: 13124
total_late: 1037
total_polluted: 1
total_misses_after_warmup: 408756
conflicts: 3699462
Degree Incremented Times: 14
Degree Decremented Times: 114840

L1 IP Table Write Accesses: 4218995
L1 IP Table Read Accesses: 519533
L1 RST Write Accesses: 166200
L1 RST Read Accesses: 332400
L1 CSPT Write Accesses: 166200
L1 CSPT Read Accesses: 326215
L1 RR Filter Tag Write Accesses: 209923
L1 RR Filter Tag Read Accesses: 9121971
L1 IP Table Tag Write Accesses: 8087290
L1 IP Table Tag Read Accesses: 8087290
L1 RST Tag Write Accesses: 0
L1 RST Tag Read Accesses: 1532724
L1 RR Filter Write Accesses: 0
L1 RR Filter Read Accesses: 297834
test: 69900
L2 IP Table Read Accesses: 575770
L2 IP Table Write Accesses: 763224
L2 IP Table Tag Read Accesses: 449439
L2 IP Table Tag Write Accesses: 449439

DRAM Statistics
 CHANNEL 0
 RQ ROW_BUFFER_HIT:       6158  ROW_BUFFER_MISS:      24677
 DBUS_CONGESTED:          5
 WQ ROW_BUFFER_HIT:        417  ROW_BUFFER_MISS:       5121  FULL:          0

 AVG_CONGESTED_CYCLE: 2
 All warmup complete: 2
Channel 0 Bank busy for read cycles: 0
Channel 0 Bank busy for write cycles: 0
Channel 0
Rank 0
0banks busy for read cycles: 85792661
0banks busy for write cycles: 4283
1banks busy for read cycles: 1561681
1banks busy for write cycles: 674011
2banks busy for read cycles: 882982
2banks busy for write cycles: 96734
3banks busy for read cycles: 99631
3banks busy for write cycles: 14503
4banks busy for read cycles: 29188
4banks busy for write cycles: 6796
5banks busy for read cycles: 13434
5banks busy for write cycles: 6114
6banks busy for read cycles: 16387
6banks busy for write cycles: 1100
7banks busy for read cycles: 14359
7banks busy for write cycles: 1924
8banks busy for read cycles: 22
8banks busy for write cycles: 1095

CPU 0 Branch Prediction Accuracy: 96.3938% MPKI: 6.5053 Average ROB Occupancy at Mispredict: 21.4843
Branch types
NOT_BRANCH: 40980207 81.9604%
BRANCH_DIRECT_JUMP: 540054 1.08011%
BRANCH_INDIRECT: 59163 0.118326%
BRANCH_CONDITIONAL: 5945669 11.8913%
BRANCH_DIRECT_CALL: 1004108 2.00822%
BRANCH_INDIRECT_CALL: 233270 0.46654%
BRANCH_RETURN: 1237360 2.47472%
BRANCH_OTHER: 0 0%

@sumon_overall_L1D     13124       719     54443     67567    419667    419740
@Sumon_Early_by_class_L1D      6376      1730      3871         0
@Sumon_Late_by_class_L1D        69       517        33         0

@Sumon_Early_by_cycle_L1D      2117       346        26        34       237      2069      1120      1034      4568      1509        58         6
@Sumon_Late_by_cycle_L1D       530       184         5         0         0         0         0         0         0         0         0         0
@Sumon_Early_stream_L1D       433        40         8         8        23      1131       727       473      2672       824        34         3
@Sumon_Early_CS_L1D      1475       223         0        23         9         0         0         0         0         0         0         0
@Sumon_Early_CPLX_L1D       135        55         9         1         1       666       290       495      1784       411        21         3
@Sumon_Late_stream_L1D        53        16         0         0         0         0         0         0         0         0         0         0
@Sumon_Late_CS_L1D       346       166         5         0         0         0         0         0         0         0         0         0
@Sumon_Late_CPLX_L1D        32         1         0         0         0         0         0         0         0         0         0         0
@sumon_overall_L2C     24118      1081     46131     69975    323576    323577
@Sumon_Early_by_class_L2C       636         1       630         0
@Sumon_Late_by_class_L2C         0         0         0         0

@Sumon_Early_by_cycle_L2C       779      2970      4456       824      1566      6716      1597       372       889      2692       106      1151
@Sumon_Late_by_cycle_L2C      1034        46         1         0         0         0         0         0         0         0         0         0
@Sumon_Early_stream_L2C         0         1         0         0         7        31         8        26       227        67        26       243
@Sumon_Early_CS_L2C         0         0         1         0         0         0         0         0         0         0         0         0
@Sumon_Early_CPLX_L2C         0         0         0         0         0         3         1        16       179       103        30       298
@Sumon_Late_stream_L2C         0         0         0         0         0         0         0         0         0         0         0         0
@Sumon_Late_CS_L2C         0         0         0         0         0         0         0         0         0         0         0         0
@Sumon_Late_CPLX_L2C         0         0         0         0         0         0         0         0         0         0         0         0
DRAM PAGES: 1048576
Allocated PAGES: 4736
