
*** ChampSim Multicore Out-of-Order Simulator ***

Warmup Instructions: 10000000
Simulation Instructions: 50000000
Number of CPUs: 1
LLC sets: 2048
LLC ways: 16
Off-chip DRAM Size: 4096 MB Channels: 1 Width: 64-bit Data Rate: 6400 MT/s
CPU 0 runs traces/clientserver/server_032.champsimtrace.xz
.xz
CPU 0 Bimodal branch predictor
BTB has LRU replacement policy
ITLB has LRU replacement policy
DTLB has LRU replacement policy
STLB has LRU replacement policy
L1I has LRU replacement policy
IP Table Entries: 256
Initialize DRRIP state for L1D
IP_Table L2 entries: 256
Initialize DRRIP state for L2C
Initialize DRRIP state for LLC
Heartbeat CPU 0 instructions: 10000002 cycles: 2883200 heartbeat IPC: 3.46837 cumulative IPC: 3.46837 (Simulation time: 0 hr 18 min 42 sec) 

Warmup complete CPU 0 instructions: 10000002 cycles: 2883200 (Simulation time: 0 hr 18 min 42 sec) 

Heartbeat CPU 0 instructions: 20000003 cycles: 26876220 heartbeat IPC: 0.416788 cumulative IPC: 0.416788 (Simulation time: 0 hr 35 min 23 sec) 
Heartbeat CPU 0 instructions: 30000001 cycles: 50800334 heartbeat IPC: 0.417988 cumulative IPC: 0.417387 (Simulation time: 0 hr 50 min 44 sec) 
Heartbeat CPU 0 instructions: 40000002 cycles: 74706742 heartbeat IPC: 0.418298 cumulative IPC: 0.41769 (Simulation time: 1 hr 0 min 36 sec) 
Heartbeat CPU 0 instructions: 50000000 cycles: 98620488 heartbeat IPC: 0.418169 cumulative IPC: 0.41781 (Simulation time: 1 hr 9 min 59 sec) 
Heartbeat CPU 0 instructions: 60000002 cycles: 122550753 heartbeat IPC: 0.417881 cumulative IPC: 0.417824 (Simulation time: 1 hr 18 min 2 sec) 
Finished CPU 0 instructions: 50000000 cycles: 119667553 cumulative IPC: 0.417824 (Simulation time: 1 hr 18 min 2 sec) 

ChampSim completed all CPUs

Region of Interest Statistics

CPU 0 cumulative IPC: 0.417824 instructions: 50000000 cycles: 119667553
ITLB TOTAL     ACCESS:    8537101  HIT:    7949169  MISS:     587932  HIT %:    93.1132  MISS %:    6.88679   MPKI: 11.7586
ITLB LOAD TRANSLATION ACCESS:    8537101  HIT:    7949169  MISS:     587932  HIT %:    93.1132  MISS %:    6.88679   MPKI: 11.7586
ITLB PREFETCH  REQUESTED:          0  ISSUED:          0  USEFUL:          0  USELESS:          0
ITLB USEFUL LOAD PREFETCHES:          0 PREFETCH ISSUED TO LOWER LEVEL:          0  ACCURACY: -nan
ITLB TIMELY PREFETCHES:          0 LATE PREFETCHES: 0 DROPPED PREFETCHES: 0
ITLB PREFETCHES SAME FILL-ORIGIN LEVEL: 0 DIFFERENT FILL-ORIGIN LEVEL: 0
ITLB AVERAGE MISS LATENCY: 9.01108 cycles
ITLB RQ	ACCESS:   10311746	FORWARD:          0	MERGED:    1628391	TO_CACHE:    8683355

DTLB TOTAL     ACCESS:   12803756  HIT:   12291449  MISS:     512307  HIT %:    95.9988  MISS %:    4.00122   MPKI: 10.2461
DTLB LOAD TRANSLATION ACCESS:   12803756  HIT:   12291449  MISS:     512307  HIT %:    95.9988  MISS %:    4.00122   MPKI: 10.2461
DTLB PREFETCH  REQUESTED:          0  ISSUED:          0  USEFUL:          0  USELESS:          0
DTLB USEFUL LOAD PREFETCHES:          0 PREFETCH ISSUED TO LOWER LEVEL:          0  ACCURACY: -nan
DTLB TIMELY PREFETCHES:          0 LATE PREFETCHES: 0 DROPPED PREFETCHES: 0
DTLB PREFETCHES SAME FILL-ORIGIN LEVEL: 0 DIFFERENT FILL-ORIGIN LEVEL: 0
DTLB AVERAGE MISS LATENCY: 9.06987 cycles
DTLB RQ	ACCESS:   16041668	FORWARD:          0	MERGED:    3222722	TO_CACHE:   12818946

STLB TOTAL     ACCESS:    1394479  HIT:    1394028  MISS:        451  HIT %:    99.9677  MISS %:  0.0323418   MPKI: 0.00902
STLB LOAD TRANSLATION ACCESS:    1100239  HIT:    1099788  MISS:        451  HIT %:     99.959  MISS %:  0.0409911   MPKI: 0.00902
STLB TRANSLATION FROM L1D PREFETCHER ACCESS:     294240  HIT:     294240  MISS:          0  HIT %:        100  MISS %:          0   MPKI: 0
STLB PREFETCH  REQUESTED:          0  ISSUED:          0  USEFUL:          0  USELESS:          0
STLB USEFUL LOAD PREFETCHES:          0 PREFETCH ISSUED TO LOWER LEVEL:          0  ACCURACY: -nan
STLB TIMELY PREFETCHES:          0 LATE PREFETCHES: 0 DROPPED PREFETCHES: 0
STLB PREFETCHES SAME FILL-ORIGIN LEVEL: 0 DIFFERENT FILL-ORIGIN LEVEL: 0
STLB AVERAGE MISS LATENCY: 69.9823 cycles
STLB RQ	ACCESS:    1467982	FORWARD:          0	MERGED:      73502	TO_CACHE:    1394480

STLB Hit, L1D data hit: 0
STLB Hit, L2C data hit: 0
STLB Hit, LLC data hit: 0
STLB Hit, LLC data miss: 0
STLB STLB hints to L2: 0
L1D TOTAL     ACCESS:   15937677  HIT:   14623985  MISS:    1313692  HIT %:    91.7573  MISS %:    8.24268   MPKI: 26.2738
L1D LOAD      ACCESS:    8821117  HIT:    7963066  MISS:     858051  HIT %:    90.2728  MISS %:    9.72724   MPKI: 17.161
L1D RFO       ACCESS:    6768200  HIT:    6468283  MISS:     299917  HIT %:    95.5687  MISS %:    4.43127   MPKI: 5.99834
L1D PREFETCH  ACCESS:     348360  HIT:     192636  MISS:     155724  HIT %:     55.298  MISS %:     44.702   MPKI: 3.11448
L1D PREFETCH  REQUESTED:     735776  ISSUED:     735776  USEFUL:      24753  USELESS:     130959
L1D USEFUL LOAD PREFETCHES:      24753 PREFETCH ISSUED TO LOWER LEVEL:     162232  ACCURACY: 15.2578
L1D TIMELY PREFETCHES:      24753 LATE PREFETCHES: 6505 DROPPED PREFETCHES: 0
L1D PREFETCHES SAME FILL-ORIGIN LEVEL: 162232 DIFFERENT FILL-ORIGIN LEVEL: 0
L1D AVERAGE MISS LATENCY: 312118 cycles
L1D RQ	ACCESS:   12024170	FORWARD:          0	MERGED:    3039587	TO_CACHE:    8850815
L1D WQ	ACCESS:    7236665	FORWARD:     134060	MERGED:      45812	TO_CACHE:    7190853
L1D PQ	ACCESS:     368034	FORWARD:          0	MERGED:          0	TO_CACHE:     367742

L1D UNIQUE REGIONS ACCESSED: 0
L1D REGIONS CONFLICTS: 0
L1D Cross Page Prefetch Requests: 0
L1D Same Page Prefetch Requests: 434371
L1D ROI Sum of L1D PQ occupancy: 4759722
L1D PREFETCHES PUSHED FROM L2C: 0
L1I TOTAL     ACCESS:    9768805  HIT:    6601965  MISS:    3166840  HIT %:    67.5821  MISS %:    32.4179   MPKI: 63.3368
L1I LOAD      ACCESS:    9768805  HIT:    6601965  MISS:    3166840  HIT %:    67.5821  MISS %:    32.4179   MPKI: 63.3368
L1I PREFETCH  REQUESTED:          0  ISSUED:          0  USEFUL:          0  USELESS:          0
L1I USEFUL LOAD PREFETCHES:          0 PREFETCH ISSUED TO LOWER LEVEL:          0  ACCURACY: -nan
L1I TIMELY PREFETCHES:          0 LATE PREFETCHES: 0 DROPPED PREFETCHES: 0
L1I PREFETCHES SAME FILL-ORIGIN LEVEL: 0 DIFFERENT FILL-ORIGIN LEVEL: 0
L1I AVERAGE MISS LATENCY: 14.9964 cycles
L1I RQ	ACCESS:   14029519	FORWARD:          0	MERGED:    3717773	TO_CACHE:   10311746

BTB TOTAL     ACCESS:    5869478  HIT:    3861116  MISS:    2008362  HIT %:     65.783  MISS %:     34.217   MPKI: 40.1672
BTB BRANCH_DIRECT_JUMP	ACCESS:     509292  HIT:     347105  MISS:     162187
BTB BRANCH_INDIRECT	ACCESS:     180188  HIT:     143385  MISS:      36803
BTB BRANCH_CONDITIONAL	ACCESS:    2595851  HIT:    2046611  MISS:     549240
BTB BRANCH_DIRECT_CALL	ACCESS:    1085946  HIT:     693459  MISS:     392487
BTB BRANCH_INDIRECT_CALL	ACCESS:     206137  HIT:     130928  MISS:      75209
BTB BRANCH_RETURN	ACCESS:    1292064  HIT:     499628  MISS:     792436
BTB BRANCH_OTHER ACCESS:          0  HIT:          0  MISS:          0

L2C TOTAL     ACCESS:    5774066  HIT:    5557372  MISS:     216694  HIT %:    96.2471  MISS %:    3.75288   MPKI: 4.33388
L2C LOAD      ACCESS:    4018350  HIT:    3882950  MISS:     135400  HIT %:    96.6305  MISS %:    3.36954   MPKI: 2.708
L2C DATA LOAD MPKI: 0.79026
L2C INSTRUCTION LOAD MPKI: 1.91774
L2C RFO       ACCESS:     299750  HIT:     279911  MISS:      19839  HIT %:    93.3815  MISS %:    6.61852   MPKI: 0.39678
L2C PREFETCH  ACCESS:     884049  HIT:     833888  MISS:      50161  HIT %:     94.326  MISS %:    5.67401   MPKI: 1.00322
L2C DATA PREFETCH MPKI: 1.00322
L2C INSTRUCTION PREFETCH MPKI: 0
L2C WRITEBACK ACCESS:     571438  HIT:     560315  MISS:      11123  HIT %:    98.0535  MISS %:    1.94649   MPKI: 0.22246
L2C LOAD TRANSLATION ACCESS:        479  HIT:        308  MISS:        171  HIT %:    64.3006  MISS %:    35.6994   MPKI: 0.00342
L2C PREFETCH  REQUESTED:     730302  ISSUED:     730302  USEFUL:       4258  USELESS:      45988
L2C USEFUL LOAD PREFETCHES:       4258 PREFETCH ISSUED TO LOWER LEVEL:      51227  ACCURACY: 8.31202
L2C TIMELY PREFETCHES:       4258 LATE PREFETCHES: 1066 DROPPED PREFETCHES: 0
L2C PREFETCHES SAME FILL-ORIGIN LEVEL: 23525 DIFFERENT FILL-ORIGIN LEVEL: 0
L2C AVERAGE MISS LATENCY: 34.993 cycles
L2C RQ	ACCESS:    4318778	FORWARD:          0	MERGED:          0	TO_CACHE:    4318579
L2C WQ	ACCESS:     571439	FORWARD:        204	MERGED:          0	TO_CACHE:     571439
L2C PQ	ACCESS:     892534	FORWARD:          0	MERGED:       5587	TO_CACHE:     886942

L2C Instructions Evicting Data 38222
L2C Translations Evicting Data 154
L2C Data Evicting Data 76317
L2C Instructions Evicting Instructions 57643
L2C Translations Evicting Instructions 16
L2C Data Evicting Instructions 32830
L2C Instructions Evicting Translations 16
L2C Translations Evicting Translations 1
L2C Data Evicting Translations 228
L2C Dense regions hint from L2: 0
PSCL5 TOTAL     ACCESS:        451  HIT:        451  MISS:          0  HIT %:        100  MISS %:          0   MPKI: 0
PSCL5 LOAD TRANSLATION ACCESS:        451  HIT:        451  MISS:          0  HIT %:        100  MISS %:          0   MPKI: 0
PSCL5 PREFETCH  REQUESTED:          0  ISSUED:          0  USEFUL:          0  USELESS:          0
PSCL5 USEFUL LOAD PREFETCHES:          0 PREFETCH ISSUED TO LOWER LEVEL:          0  ACCURACY: -nan
PSCL5 TIMELY PREFETCHES:          0 LATE PREFETCHES: 0 DROPPED PREFETCHES: 0
PSCL5 PREFETCHES SAME FILL-ORIGIN LEVEL: 0 DIFFERENT FILL-ORIGIN LEVEL: 0

PSCL4 TOTAL     ACCESS:        449  HIT:        445  MISS:          4  HIT %:    99.1091  MISS %:   0.890869   MPKI: 8e-05
PSCL4 LOAD TRANSLATION ACCESS:        449  HIT:        445  MISS:          4  HIT %:    99.1091  MISS %:   0.890869   MPKI: 8e-05
PSCL4 PREFETCH  REQUESTED:          0  ISSUED:          0  USEFUL:          0  USELESS:          0
PSCL4 USEFUL LOAD PREFETCHES:          0 PREFETCH ISSUED TO LOWER LEVEL:          0  ACCURACY: -nan
PSCL4 TIMELY PREFETCHES:          0 LATE PREFETCHES: 0 DROPPED PREFETCHES: 0
PSCL4 PREFETCHES SAME FILL-ORIGIN LEVEL: 0 DIFFERENT FILL-ORIGIN LEVEL: 0

PSCL3 TOTAL     ACCESS:        450  HIT:        446  MISS:          4  HIT %:    99.1111  MISS %:   0.888889   MPKI: 8e-05
PSCL3 LOAD TRANSLATION ACCESS:        450  HIT:        446  MISS:          4  HIT %:    99.1111  MISS %:   0.888889   MPKI: 8e-05
PSCL3 PREFETCH  REQUESTED:          0  ISSUED:          0  USEFUL:          0  USELESS:          0
PSCL3 USEFUL LOAD PREFETCHES:          0 PREFETCH ISSUED TO LOWER LEVEL:          0  ACCURACY: -nan
PSCL3 TIMELY PREFETCHES:          0 LATE PREFETCHES: 0 DROPPED PREFETCHES: 0
PSCL3 PREFETCHES SAME FILL-ORIGIN LEVEL: 0 DIFFERENT FILL-ORIGIN LEVEL: 0

PSCL2 TOTAL     ACCESS:        451  HIT:        429  MISS:         22  HIT %:     95.122  MISS %:    4.87805   MPKI: 0.00044
PSCL2 LOAD TRANSLATION ACCESS:        451  HIT:        429  MISS:         22  HIT %:     95.122  MISS %:    4.87805   MPKI: 0.00044
PSCL2 PREFETCH  REQUESTED:          0  ISSUED:          0  USEFUL:          0  USELESS:          0
PSCL2 USEFUL LOAD PREFETCHES:          0 PREFETCH ISSUED TO LOWER LEVEL:          0  ACCURACY: -nan
PSCL2 TIMELY PREFETCHES:          0 LATE PREFETCHES: 0 DROPPED PREFETCHES: 0
PSCL2 PREFETCHES SAME FILL-ORIGIN LEVEL: 0 DIFFERENT FILL-ORIGIN LEVEL: 0

LLC TOTAL     ACCESS:     238728  HIT:     227648  MISS:      11080  HIT %:    95.3587  MISS %:    4.64127   MPKI: 0.2216
LLC LOAD      ACCESS:     134389  HIT:     131939  MISS:       2450  HIT %:    98.1769  MISS %:    1.82307   MPKI: 0.049
LLC RFO       ACCESS:      19784  HIT:      19769  MISS:         15  HIT %:    99.9242  MISS %:  0.0758188   MPKI: 0.0003
LLC PREFETCH  ACCESS:      51227  HIT:      42638  MISS:       8589  HIT %:    83.2335  MISS %:    16.7665   MPKI: 0.17178
LLC WRITEBACK ACCESS:      33157  HIT:      33153  MISS:          4  HIT %:    99.9879  MISS %:  0.0120638   MPKI: 8e-05
LLC LOAD TRANSLATION ACCESS:        171  HIT:        149  MISS:         22  HIT %:    87.1345  MISS %:    12.8655   MPKI: 0.00044
LLC PREFETCH  REQUESTED:          0  ISSUED:          0  USEFUL:        944  USELESS:        202
LLC USEFUL LOAD PREFETCHES:        944 PREFETCH ISSUED TO LOWER LEVEL:       8589  ACCURACY: 10.9908
LLC TIMELY PREFETCHES:        944 LATE PREFETCHES: 0 DROPPED PREFETCHES: 0
LLC PREFETCHES SAME FILL-ORIGIN LEVEL: 0 DIFFERENT FILL-ORIGIN LEVEL: 0
LLC AVERAGE MISS LATENCY: 129.448 cycles
LLC RQ	ACCESS:     154344	FORWARD:          0	MERGED:          0	TO_CACHE:     154344
LLC WQ	ACCESS:      33157	FORWARD:          0	MERGED:          0	TO_CACHE:      33157
LLC PQ	ACCESS:      51227	FORWARD:          0	MERGED:          0	TO_CACHE:      51227

LLC Dense regions hint to LLC: 0

RAW hits: 611823
Loads Generated: 12635992
Loads sent to L1D: 12024170
Stores Generated: 7236649
Stores sent to L1D: 7236665
Major fault: 0 Minor fault: 1259
Allocated PAGES: 1259

stream: 
stream:times selected: 662401
stream:pref_filled: 116487
stream:pref_useful: 14264
stream:pref_late: 3301
stream:misses: 4326
stream:misses_by_poll: 0

CS: 
CS:times selected: 57768
CS:pref_filled: 23876
CS:pref_useful: 11166
CS:pref_late: 2167
CS:misses: 6025
CS:misses_by_poll: 1

CPLX: 
CPLX:times selected: 602624
CPLX:pref_filled: 40451
CPLX:pref_useful: 3024
CPLX:pref_late: 374
CPLX:misses: 60274
CPLX:misses_by_poll: 4

NL_L1: 
NL:times selected: 5827
NL:pref_filled: 1149
NL:pref_useful: 119
NL:pref_late: 2
NL:misses: 78
NL:misses_by_poll: 0

total selections: 1328620
total_filled: 155724
total_useful: 24753
total_late: 7361
total_polluted: 5
total_misses_after_warmup: 887750
conflicts: 3537732
Degree Incremented Times: 0
Degree Decremented Times: 132203

L1 IP Table Write Accesses: 5020974
L1 IP Table Read Accesses: 1483242
L1 RST Write Accesses: 563694
L1 RST Read Accesses: 1127388
L1 CSPT Write Accesses: 563694
L1 CSPT Read Accesses: 1076089
L1 RR Filter Tag Write Accesses: 368034
L1 RR Filter Tag Read Accesses: 25650270
L1 IP Table Tag Write Accesses: 8850816
L1 IP Table Tag Read Accesses: 8850816
L1 RST Tag Write Accesses: 0
L1 RST Tag Read Accesses: 4411552
L1 RR Filter Write Accesses: 0
L1 RR Filter Read Accesses: 948534
test: 116578
L2 IP Table Read Accesses: 1273421
L2 IP Table Write Accesses: 1798883
L2 IP Table Tag Read Accesses: 1008391
L2 IP Table Tag Write Accesses: 1008391

DRAM Statistics
 CHANNEL 0
 RQ ROW_BUFFER_HIT:       4802  ROW_BUFFER_MISS:       6274
 DBUS_CONGESTED:          0
 WQ ROW_BUFFER_HIT:          2  ROW_BUFFER_MISS:          3  FULL:          0

 AVG_CONGESTED_CYCLE: -
 All warmup complete: 2
Channel 0 Bank busy for read cycles: 0
Channel 0 Bank busy for write cycles: 0
Channel 0
Rank 0
0banks busy for read cycles: 119029904
0banks busy for write cycles: 4
1banks busy for read cycles: 299397
1banks busy for write cycles: 724
2banks busy for read cycles: 206706
2banks busy for write cycles: 199
3banks busy for read cycles: 67924
3banks busy for write cycles: 0
4banks busy for read cycles: 52263
4banks busy for write cycles: 0
5banks busy for read cycles: 7542
5banks busy for write cycles: 0
6banks busy for read cycles: 2377
6banks busy for write cycles: 0
7banks busy for read cycles: 514
7banks busy for write cycles: 0
8banks busy for read cycles: 0
8banks busy for write cycles: 0

CPU 0 Branch Prediction Accuracy: 92.2268% MPKI: 14.419 Average ROB Occupancy at Mispredict: 16.2272
Branch types
NOT_BRANCH: 40724896 81.4498%
BRANCH_DIRECT_JUMP: 509292 1.01858%
BRANCH_INDIRECT: 180188 0.360376%
BRANCH_CONDITIONAL: 6001157 12.0023%
BRANCH_DIRECT_CALL: 1085946 2.17189%
BRANCH_INDIRECT_CALL: 206137 0.412274%
BRANCH_RETURN: 1292064 2.58413%
BRANCH_OTHER: 0 0%

@sumon_overall_L1D     24753      6505    130959    155724    735776    735776
@Sumon_Early_by_class_L1D     11706      9302      2458         2
@Sumon_Late_by_class_L1D      2630      2108       282         2

@Sumon_Early_by_cycle_L1D     14125      2505      1726       817        55      1864       537      1660      1020       418        26         0
@Sumon_Late_by_cycle_L1D      5804       698         3         0         0         0         0         0         0         0         0         0
@Sumon_Early_stream_L1D      4422      1547       997       757        44      1169       303      1287       812       349        19         0
@Sumon_Early_CS_L1D      8573       696        28         4         0         1         0         0         0         0         0         0
@Sumon_Early_CPLX_L1D       596       188       493        39         5       319       183       358       203        67         7         0
@Sumon_Late_stream_L1D      2204       423         3         0         0         0         0         0         0         0         0         0
@Sumon_Late_CS_L1D      1872       236         0         0         0         0         0         0         0         0         0         0
@Sumon_Late_CPLX_L1D       271        11         0         0         0         0         0         0         0         0         0         0
@sumon_overall_L2C      4258      1066     45988     50161    730302    730302
@Sumon_Early_by_class_L2C       319        54       141         0
@Sumon_Late_by_class_L2C         0         0         0         0

@Sumon_Early_by_cycle_L2C      1168       278       300       402        23       127       479       115        51        82       590       643
@Sumon_Late_by_cycle_L2C       897       169         0         0         0         0         0         0         0         0         0         0
@Sumon_Early_stream_L2C         9         6         3         0         0         0         0         1         6         7        28       259
@Sumon_Early_CS_L2C         1         0         0         0         0         0         0         0         0         0         0        53
@Sumon_Early_CPLX_L2C         1         1         0         0         0         0         0         1         0         2        16       120
@Sumon_Late_stream_L2C         0         0         0         0         0         0         0         0         0         0         0         0
@Sumon_Late_CS_L2C         0         0         0         0         0         0         0         0         0         0         0         0
@Sumon_Late_CPLX_L2C         0         0         0         0         0         0         0         0         0         0         0         0
DRAM PAGES: 1048576
Allocated PAGES: 1259
