
*** ChampSim Multicore Out-of-Order Simulator ***

Warmup Instructions: 10000000
Simulation Instructions: 50000000
Number of CPUs: 1
LLC sets: 2048
LLC ways: 16
Off-chip DRAM Size: 4096 MB Channels: 1 Width: 64-bit Data Rate: 6400 MT/s
CPU 0 runs traces/SPEC2017/603.bwaves_s-2931B.champsimtrace.xz
.xz
CPU 0 Bimodal branch predictor
BTB has LRU replacement policy
ITLB has LRU replacement policy
DTLB has LRU replacement policy
STLB has LRU replacement policy
L1I has LRU replacement policy
IP Table Entries: 256
Initialize SRRIP state for L1D
IP_Table L2 entries: 256
L2C has LRU replacement policy
LLC has LRU replacement policy
Heartbeat CPU 0 instructions: 10000003 cycles: 2946832 heartbeat IPC: 3.39348 cumulative IPC: 3.39348 (Simulation time: 0 hr 22 min 29 sec) 

Warmup complete CPU 0 instructions: 10000003 cycles: 2946832 (Simulation time: 0 hr 22 min 29 sec) 

Heartbeat CPU 0 instructions: 20000001 cycles: 11711964 heartbeat IPC: 1.14088 cumulative IPC: 1.14088 (Simulation time: 0 hr 41 min 11 sec) 
Heartbeat CPU 0 instructions: 30000001 cycles: 20480897 heartbeat IPC: 1.14039 cumulative IPC: 1.14064 (Simulation time: 0 hr 59 min 51 sec) 
Heartbeat CPU 0 instructions: 40000003 cycles: 29247512 heartbeat IPC: 1.14069 cumulative IPC: 1.14065 (Simulation time: 1 hr 18 min 28 sec) 
Heartbeat CPU 0 instructions: 50000003 cycles: 38013058 heartbeat IPC: 1.14083 cumulative IPC: 1.1407 (Simulation time: 1 hr 37 min 22 sec) 
Heartbeat CPU 0 instructions: 60000000 cycles: 46788659 heartbeat IPC: 1.13952 cumulative IPC: 1.14046 (Simulation time: 1 hr 53 min 40 sec) 
Finished CPU 0 instructions: 50000000 cycles: 43841830 cumulative IPC: 1.14046 (Simulation time: 1 hr 53 min 40 sec) 

ChampSim completed all CPUs

Region of Interest Statistics

CPU 0 cumulative IPC: 1.14046 instructions: 50000000 cycles: 43841830
ITLB TOTAL     ACCESS:    6031420  HIT:    6031420  MISS:          0  HIT %:        100  MISS %:          0   MPKI: 0
ITLB LOAD TRANSLATION ACCESS:    6031420  HIT:    6031420  MISS:          0  HIT %:        100  MISS %:          0   MPKI: 0
ITLB PREFETCH  REQUESTED:          0  ISSUED:          0  USEFUL:          0  USELESS:          0
ITLB USEFUL LOAD PREFETCHES:          0 PREFETCH ISSUED TO LOWER LEVEL:          0  ACCURACY: -nan
ITLB TIMELY PREFETCHES:          0 LATE PREFETCHES: 0 DROPPED PREFETCHES: 0
ITLB PREFETCHES SAME FILL-ORIGIN LEVEL: 0 DIFFERENT FILL-ORIGIN LEVEL: 0
ITLB AVERAGE MISS LATENCY: -nan cycles
ITLB RQ	ACCESS:    7011662	FORWARD:          0	MERGED:     980242	TO_CACHE:    6031420

DTLB TOTAL     ACCESS:   12693236  HIT:   12577381  MISS:     115855  HIT %:    99.0873  MISS %:    0.91273   MPKI: 2.3171
DTLB LOAD TRANSLATION ACCESS:   12693236  HIT:   12577381  MISS:     115855  HIT %:    99.0873  MISS %:    0.91273   MPKI: 2.3171
DTLB PREFETCH  REQUESTED:          0  ISSUED:          0  USEFUL:          0  USELESS:          0
DTLB USEFUL LOAD PREFETCHES:          0 PREFETCH ISSUED TO LOWER LEVEL:          0  ACCURACY: -nan
DTLB TIMELY PREFETCHES:          0 LATE PREFETCHES: 0 DROPPED PREFETCHES: 0
DTLB PREFETCHES SAME FILL-ORIGIN LEVEL: 0 DIFFERENT FILL-ORIGIN LEVEL: 0
DTLB AVERAGE MISS LATENCY: 42.4131 cycles
DTLB RQ	ACCESS:   18838319	FORWARD:          0	MERGED:    6140079	TO_CACHE:   12698240

STLB TOTAL     ACCESS:     598976  HIT:     588332  MISS:      10644  HIT %:     98.223  MISS %:    1.77703   MPKI: 0.21288
STLB LOAD TRANSLATION ACCESS:     115855  HIT:     105211  MISS:      10644  HIT %:    90.8127  MISS %:    9.18735   MPKI: 0.21288
STLB TRANSLATION FROM L1D PREFETCHER ACCESS:     483121  HIT:     483121  MISS:          0  HIT %:        100  MISS %:          0   MPKI: 0
STLB PREFETCH  REQUESTED:          0  ISSUED:          0  USEFUL:          0  USELESS:          0
STLB USEFUL LOAD PREFETCHES:          0 PREFETCH ISSUED TO LOWER LEVEL:          0  ACCURACY: -nan
STLB TIMELY PREFETCHES:          0 LATE PREFETCHES: 0 DROPPED PREFETCHES: 0
STLB PREFETCHES SAME FILL-ORIGIN LEVEL: 0 DIFFERENT FILL-ORIGIN LEVEL: 0
STLB AVERAGE MISS LATENCY: 355.796 cycles
STLB RQ	ACCESS:    2633841	FORWARD:          0	MERGED:    2034865	TO_CACHE:     598976

STLB Hit, L1D data hit: 0
STLB Hit, L2C data hit: 0
STLB Hit, LLC data hit: 0
STLB Hit, LLC data miss: 0
STLB STLB hints to L2: 0
L1D TOTAL     ACCESS:   20612603  HIT:   19629462  MISS:     983141  HIT %:    95.2304  MISS %:    4.76961   MPKI: 19.6628
L1D LOAD      ACCESS:    9674592  HIT:    9609662  MISS:      64930  HIT %:    99.3289  MISS %:   0.671139   MPKI: 1.2986
L1D RFO       ACCESS:    8420025  HIT:    8051847  MISS:     368178  HIT %:    95.6274  MISS %:    4.37265   MPKI: 7.36356
L1D PREFETCH  ACCESS:    2517986  HIT:    1967953  MISS:     550033  HIT %:    78.1558  MISS %:    21.8442   MPKI: 11.0007
L1D PREFETCH  REQUESTED:    5097422  ISSUED:    5035972  USEFUL:     487188  USELESS:      62849
L1D USEFUL LOAD PREFETCHES:     487188 PREFETCH ISSUED TO LOWER LEVEL:     562358  ACCURACY: 86.6331
L1D TIMELY PREFETCHES:     487188 LATE PREFETCHES: 0 DROPPED PREFETCHES: 0
L1D PREFETCHES SAME FILL-ORIGIN LEVEL: 562358 DIFFERENT FILL-ORIGIN LEVEL: 0
L1D AVERAGE MISS LATENCY: 132.47 cycles
L1D RQ	ACCESS:   14462456	FORWARD:          0	MERGED:    4733111	TO_CACHE:    9678065
L1D WQ	ACCESS:    9162265	FORWARD:      51280	MERGED:       2011	TO_CACHE:    9160254
L1D PQ	ACCESS:    2517986	FORWARD:          0	MERGED:          0	TO_CACHE:    2517986

L1D UNIQUE REGIONS ACCESSED: 0
L1D REGIONS CONFLICTS: 0
L1D Cross Page Prefetch Requests: 0
L1D Same Page Prefetch Requests: 3041924
L1D ROI Sum of L1D PQ occupancy: 37306718
L1D PREFETCHES PUSHED FROM L2C: 0
L1I TOTAL     ACCESS:    7011657  HIT:    7011650  MISS:          7  HIT %:    99.9999  MISS %: 9.98337e-05   MPKI: 0.00014
L1I LOAD      ACCESS:    7011657  HIT:    7011650  MISS:          7  HIT %:    99.9999  MISS %: 9.98337e-05   MPKI: 0.00014
L1I PREFETCH  REQUESTED:          0  ISSUED:          0  USEFUL:          0  USELESS:          0
L1I USEFUL LOAD PREFETCHES:          0 PREFETCH ISSUED TO LOWER LEVEL:          0  ACCURACY: -nan
L1I TIMELY PREFETCHES:          0 LATE PREFETCHES: 0 DROPPED PREFETCHES: 0
L1I PREFETCHES SAME FILL-ORIGIN LEVEL: 0 DIFFERENT FILL-ORIGIN LEVEL: 0
L1I AVERAGE MISS LATENCY: 214 cycles
L1I RQ	ACCESS:   10106982	FORWARD:          0	MERGED:    3095320	TO_CACHE:    7011662

BTB TOTAL     ACCESS:     421996  HIT:     421991  MISS:          5  HIT %:    99.9988  MISS %: 0.00118485   MPKI: 0.0001
BTB BRANCH_DIRECT_JUMP	ACCESS:          0  HIT:          0  MISS:          0
BTB BRANCH_INDIRECT	ACCESS:          0  HIT:          0  MISS:          0
BTB BRANCH_CONDITIONAL	ACCESS:     421996  HIT:     421991  MISS:          5
BTB BRANCH_DIRECT_CALL	ACCESS:          0  HIT:          0  MISS:          0
BTB BRANCH_INDIRECT_CALL	ACCESS:          0  HIT:          0  MISS:          0
BTB BRANCH_RETURN	ACCESS:          0  HIT:          0  MISS:          0
BTB BRANCH_OTHER ACCESS:          0  HIT:          0  MISS:          0

L2C TOTAL     ACCESS:    3607108  HIT:    2862860  MISS:     744248  HIT %:    79.3672  MISS %:    20.6328   MPKI: 14.885
L2C LOAD      ACCESS:      64909  HIT:      57367  MISS:       7542  HIT %:    88.3807  MISS %:    11.6193   MPKI: 0.15084
L2C DATA LOAD MPKI: 0.1507
L2C INSTRUCTION LOAD MPKI: 0.00014
L2C RFO       ACCESS:     345462  HIT:      47768  MISS:     297694  HIT %:    13.8273  MISS %:    86.1727   MPKI: 5.95388
L2C PREFETCH  ACCESS:    2813266  HIT:    2375640  MISS:     437626  HIT %:    84.4442  MISS %:    15.5558   MPKI: 8.75252
L2C DATA PREFETCH MPKI: 8.75252
L2C INSTRUCTION PREFETCH MPKI: 0
L2C WRITEBACK ACCESS:     372823  HIT:     372799  MISS:         24  HIT %:    99.9936  MISS %: 0.00643737   MPKI: 0.00048
L2C LOAD TRANSLATION ACCESS:      10648  HIT:       9286  MISS:       1362  HIT %:    87.2089  MISS %:    12.7911   MPKI: 0.02724
L2C PREFETCH  REQUESTED:    2960876  ISSUED:    2882070  USEFUL:      38103  USELESS:     399193
L2C USEFUL LOAD PREFETCHES:      38103 PREFETCH ISSUED TO LOWER LEVEL:     437627  ACCURACY: 8.70673
L2C TIMELY PREFETCHES:      38103 LATE PREFETCHES: 1 DROPPED PREFETCHES: 0
L2C PREFETCHES SAME FILL-ORIGIN LEVEL: 390706 DIFFERENT FILL-ORIGIN LEVEL: 0
L2C AVERAGE MISS LATENCY: 248.155 cycles
L2C RQ	ACCESS:     443766	FORWARD:          0	MERGED:          0	TO_CACHE:     421022
L2C WQ	ACCESS:     372824	FORWARD:      22744	MERGED:          1	TO_CACHE:     372823
L2C PQ	ACCESS:    3432103	FORWARD:          0	MERGED:     616778	TO_CACHE:    2815325

L2C Instructions Evicting Data 7
L2C Translations Evicting Data 1362
L2C Data Evicting Data 741487
L2C Instructions Evicting Instructions 0
L2C Translations Evicting Instructions 0
L2C Data Evicting Instructions 7
L2C Instructions Evicting Translations 0
L2C Translations Evicting Translations 0
L2C Data Evicting Translations 1361
L2C Dense regions hint from L2: 0
PSCL5 TOTAL     ACCESS:      10644  HIT:      10644  MISS:          0  HIT %:        100  MISS %:          0   MPKI: 0
PSCL5 LOAD TRANSLATION ACCESS:      10644  HIT:      10644  MISS:          0  HIT %:        100  MISS %:          0   MPKI: 0
PSCL5 PREFETCH  REQUESTED:          0  ISSUED:          0  USEFUL:          0  USELESS:          0
PSCL5 USEFUL LOAD PREFETCHES:          0 PREFETCH ISSUED TO LOWER LEVEL:          0  ACCURACY: -nan
PSCL5 TIMELY PREFETCHES:          0 LATE PREFETCHES: 0 DROPPED PREFETCHES: 0
PSCL5 PREFETCHES SAME FILL-ORIGIN LEVEL: 0 DIFFERENT FILL-ORIGIN LEVEL: 0

PSCL4 TOTAL     ACCESS:      10644  HIT:      10644  MISS:          0  HIT %:        100  MISS %:          0   MPKI: 0
PSCL4 LOAD TRANSLATION ACCESS:      10644  HIT:      10644  MISS:          0  HIT %:        100  MISS %:          0   MPKI: 0
PSCL4 PREFETCH  REQUESTED:          0  ISSUED:          0  USEFUL:          0  USELESS:          0
PSCL4 USEFUL LOAD PREFETCHES:          0 PREFETCH ISSUED TO LOWER LEVEL:          0  ACCURACY: -nan
PSCL4 TIMELY PREFETCHES:          0 LATE PREFETCHES: 0 DROPPED PREFETCHES: 0
PSCL4 PREFETCHES SAME FILL-ORIGIN LEVEL: 0 DIFFERENT FILL-ORIGIN LEVEL: 0

PSCL3 TOTAL     ACCESS:       8509  HIT:       8505  MISS:          4  HIT %:     99.953  MISS %:   0.047009   MPKI: 8e-05
PSCL3 LOAD TRANSLATION ACCESS:       8509  HIT:       8505  MISS:          4  HIT %:     99.953  MISS %:   0.047009   MPKI: 8e-05
PSCL3 PREFETCH  REQUESTED:          0  ISSUED:          0  USEFUL:          0  USELESS:          0
PSCL3 USEFUL LOAD PREFETCHES:          0 PREFETCH ISSUED TO LOWER LEVEL:          0  ACCURACY: -nan
PSCL3 TIMELY PREFETCHES:          0 LATE PREFETCHES: 0 DROPPED PREFETCHES: 0
PSCL3 PREFETCHES SAME FILL-ORIGIN LEVEL: 0 DIFFERENT FILL-ORIGIN LEVEL: 0

PSCL2 TOTAL     ACCESS:      10644  HIT:      10622  MISS:         22  HIT %:    99.7933  MISS %:   0.206689   MPKI: 0.00044
PSCL2 LOAD TRANSLATION ACCESS:      10644  HIT:      10622  MISS:         22  HIT %:    99.7933  MISS %:   0.206689   MPKI: 0.00044
PSCL2 PREFETCH  REQUESTED:          0  ISSUED:          0  USEFUL:          0  USELESS:          0
PSCL2 USEFUL LOAD PREFETCHES:          0 PREFETCH ISSUED TO LOWER LEVEL:          0  ACCURACY: -nan
PSCL2 TIMELY PREFETCHES:          0 LATE PREFETCHES: 0 DROPPED PREFETCHES: 0
PSCL2 PREFETCHES SAME FILL-ORIGIN LEVEL: 0 DIFFERENT FILL-ORIGIN LEVEL: 0

LLC TOTAL     ACCESS:    1042428  HIT:     359516  MISS:     682912  HIT %:    34.4883  MISS %:    65.5117   MPKI: 13.6582
LLC LOAD      ACCESS:       7541  HIT:       1086  MISS:       6455  HIT %:    14.4013  MISS %:    85.5987   MPKI: 0.1291
LLC RFO       ACCESS:     297694  HIT:          0  MISS:     297694  HIT %:          0  MISS %:        100   MPKI: 5.95388
LLC PREFETCH  ACCESS:     437627  HIT:      60239  MISS:     377388  HIT %:    13.7649  MISS %:    86.2351   MPKI: 7.54776
LLC WRITEBACK ACCESS:     298204  HIT:     298187  MISS:         17  HIT %:    99.9943  MISS %:  0.0057008   MPKI: 0.00034
LLC LOAD TRANSLATION ACCESS:       1362  HIT:          4  MISS:       1358  HIT %:   0.293686  MISS %:    99.7063   MPKI: 0.02716
LLC PREFETCH  REQUESTED:          0  ISSUED:          0  USEFUL:         23  USELESS:     376916
LLC USEFUL LOAD PREFETCHES:         23 PREFETCH ISSUED TO LOWER LEVEL:     377388  ACCURACY: 0.00609452
LLC TIMELY PREFETCHES:         23 LATE PREFETCHES: 0 DROPPED PREFETCHES: 0
LLC PREFETCHES SAME FILL-ORIGIN LEVEL: 0 DIFFERENT FILL-ORIGIN LEVEL: 0
LLC AVERAGE MISS LATENCY: 236.534 cycles
LLC RQ	ACCESS:     306599	FORWARD:          0	MERGED:          0	TO_CACHE:     306599
LLC WQ	ACCESS:     298204	FORWARD:          0	MERGED:          0	TO_CACHE:     298204
LLC PQ	ACCESS:     437627	FORWARD:          0	MERGED:          0	TO_CACHE:     437627

LLC Dense regions hint to LLC: 0

RAW hits: 199008
Loads Generated: 14661466
Loads sent to L1D: 14462456
Stores Generated: 9162246
Stores sent to L1D: 9162265
Major fault: 0 Minor fault: 12766
Allocated PAGES: 12766

stream: 
stream:times selected: 595931
stream:pref_filled: 660709
stream:pref_useful: 580475
stream:pref_late: 16
stream:misses: 11
stream:misses_by_poll: 0

CS: 
CS:times selected: 539351
CS:pref_filled: 925
CS:pref_useful: 891
CS:pref_late: 0
CS:misses: 28209
CS:misses_by_poll: 1

CPLX: 
CPLX:times selected: 56529
CPLX:pref_filled: 142
CPLX:pref_useful: 91
CPLX:pref_late: 0
CPLX:misses: 10848
CPLX:misses_by_poll: 1

NL_L1: 
NL:times selected: 4
NL:pref_filled: 3
NL:pref_useful: 3
NL:pref_late: 0
NL:misses: 0
NL:misses_by_poll: 0

total selections: 1191815
total_filled: 550033
total_useful: 487188
total_late: 16
total_polluted: 2
total_misses_after_warmup: 68404
conflicts: 85627
Degree Incremented Times: 119256
Degree Decremented Times: 0

L1 IP Table Write Accesses: 8830278
L1 IP Table Read Accesses: 8744651
L1 RST Write Accesses: 494701
L1 RST Read Accesses: 989402
L1 CSPT Write Accesses: 494701
L1 CSPT Read Accesses: 641913
L1 RR Filter Tag Write Accesses: 2579436
L1 RR Filter Tag Read Accesses: 124889931
L1 IP Table Tag Write Accesses: 9678066
L1 IP Table Tag Read Accesses: 9678066
L1 RST Tag Write Accesses: 0
L1 RST Tag Read Accesses: 4452859
L1 RR Filter Write Accesses: 0
L1 RR Filter Read Accesses: 4239894
test: 9560
L2 IP Table Read Accesses: 1088247
L2 IP Table Write Accesses: 1054538
L2 IP Table Tag Read Accesses: 562097
L2 IP Table Tag Write Accesses: 562097

DRAM Statistics
 CHANNEL 0
 RQ ROW_BUFFER_HIT:     385254  ROW_BUFFER_MISS:     297641
 DBUS_CONGESTED:        837
 WQ ROW_BUFFER_HIT:     103613  ROW_BUFFER_MISS:     194538  FULL:          0

 AVG_CONGESTED_CYCLE: 5
 All warmup complete: 2
Channel 0 Bank busy for read cycles: 0
Channel 0 Bank busy for write cycles: 0
Channel 0
Rank 0
0banks busy for read cycles: 1764870
0banks busy for write cycles: 27537
1banks busy for read cycles: 14884645
1banks busy for write cycles: 2403812
2banks busy for read cycles: 7010555
2banks busy for write cycles: 2255627
3banks busy for read cycles: 3182336
3banks busy for write cycles: 1934660
4banks busy for read cycles: 1462782
4banks busy for write cycles: 1660170
5banks busy for read cycles: 1113892
5banks busy for write cycles: 1261402
6banks busy for read cycles: 789961
6banks busy for write cycles: 936233
7banks busy for read cycles: 774332
7banks busy for write cycles: 875807
8banks busy for read cycles: 486723
8banks busy for write cycles: 1016487

CPU 0 Branch Prediction Accuracy: 80.6206% MPKI: 1.63562 Average ROB Occupancy at Mispredict: 67.7568
Branch types
NOT_BRANCH: 49577691 99.1554%
BRANCH_DIRECT_JUMP: 0 0%
BRANCH_INDIRECT: 0 0%
BRANCH_CONDITIONAL: 421999 0.843998%
BRANCH_DIRECT_CALL: 0 0%
BRANCH_INDIRECT_CALL: 0 0%
BRANCH_RETURN: 0 0%
BRANCH_OTHER: 0 0%

@sumon_overall_L1D    487188         0     62849    550033   5035972   5097422
@Sumon_Early_by_class_L1D    483937       737        65         0
@Sumon_Late_by_class_L1D         0         0         0         0

@Sumon_Early_by_cycle_L1D         7       136        59      1137     10260     62439     90610    322539         1         0         0         0
@Sumon_Late_by_cycle_L1D         0         0         0         0         0         0         0         0         0         0         0         0
@Sumon_Early_stream_L1D         7       136        56       928      8177     61566     90528    322539         0         0         0         0
@Sumon_Early_CS_L1D         0         0         0         0       159       531        47         0         0         0         0         0
@Sumon_Early_CPLX_L1D         0         0         0         2         2        29        31         0         1         0         0         0
@Sumon_Late_stream_L1D         0         0         0         0         0         0         0         0         0         0         0         0
@Sumon_Late_CS_L1D         0         0         0         0         0         0         0         0         0         0         0         0
@Sumon_Late_CPLX_L1D         0         0         0         0         0         0         0         0         0         0         0         0
@sumon_overall_L2C     38103         1    399193    437626   2882070   2960876
@Sumon_Early_by_class_L2C     36366         6        25         0
@Sumon_Late_by_class_L2C         1         0         0         0

@Sumon_Early_by_cycle_L2C         3         8         5       339       700      2083      1615     11734     21030         2         0       584
@Sumon_Late_by_cycle_L2C         0         1         0         0         0         0         0         0         0         0         0         0
@Sumon_Early_stream_L2C         1         6         2        13        26      1391      1589     11724     21028         2         0       584
@Sumon_Early_CS_L2C         0         0         0         0         0         0         0         6         0         0         0         0
@Sumon_Early_CPLX_L2C         0         0         0         0         0         6        17         0         2         0         0         0
@Sumon_Late_stream_L2C         0         1         0         0         0         0         0         0         0         0         0         0
@Sumon_Late_CS_L2C         0         0         0         0         0         0         0         0         0         0         0         0
@Sumon_Late_CPLX_L2C         0         0         0         0         0         0         0         0         0         0         0         0
DRAM PAGES: 1048576
Allocated PAGES: 12766
