
*** ChampSim Multicore Out-of-Order Simulator ***

Warmup Instructions: 10000000
Simulation Instructions: 50000000
Number of CPUs: 1
LLC sets: 2048
LLC ways: 16
Off-chip DRAM Size: 4096 MB Channels: 1 Width: 64-bit Data Rate: 6400 MT/s
CPU 0 runs traces/SPEC2017/605.mcf_s-1536B.champsimtrace.xz
.xz
CPU 0 Bimodal branch predictor
BTB has LRU replacement policy
ITLB has LRU replacement policy
DTLB has LRU replacement policy
STLB has LRU replacement policy
L1I has LRU replacement policy
IP Table Entries: 256
Initialize SRRIP state for L1D
IP_Table L2 entries: 256
L2C has LRU replacement policy
LLC has LRU replacement policy
Heartbeat CPU 0 instructions: 10000003 cycles: 2854300 heartbeat IPC: 3.50349 cumulative IPC: 3.50349 (Simulation time: 0 hr 22 min 37 sec) 

Warmup complete CPU 0 instructions: 10000003 cycles: 2854300 (Simulation time: 0 hr 22 min 37 sec) 

Heartbeat CPU 0 instructions: 20000001 cycles: 38278461 heartbeat IPC: 0.282293 cumulative IPC: 0.282293 (Simulation time: 1 hr 3 min 21 sec) 
Heartbeat CPU 0 instructions: 30000002 cycles: 74026817 heartbeat IPC: 0.279733 cumulative IPC: 0.281007 (Simulation time: 1 hr 43 min 44 sec) 
Heartbeat CPU 0 instructions: 40000001 cycles: 110708000 heartbeat IPC: 0.272619 cumulative IPC: 0.278155 (Simulation time: 2 hr 9 min 3 sec) 
Heartbeat CPU 0 instructions: 50000000 cycles: 146985467 heartbeat IPC: 0.275653 cumulative IPC: 0.277525 (Simulation time: 2 hr 20 min 47 sec) 
Heartbeat CPU 0 instructions: 60000003 cycles: 183503612 heartbeat IPC: 0.273837 cumulative IPC: 0.276779 (Simulation time: 2 hr 28 min 25 sec) 
Finished CPU 0 instructions: 50000000 cycles: 180649312 cumulative IPC: 0.276779 (Simulation time: 2 hr 28 min 25 sec) 

ChampSim completed all CPUs

Region of Interest Statistics

CPU 0 cumulative IPC: 0.276779 instructions: 50000000 cycles: 180649312
ITLB TOTAL     ACCESS:    9152999  HIT:    9152999  MISS:          0  HIT %:        100  MISS %:          0   MPKI: 0
ITLB LOAD TRANSLATION ACCESS:    9152999  HIT:    9152999  MISS:          0  HIT %:        100  MISS %:          0   MPKI: 0
ITLB PREFETCH  REQUESTED:          0  ISSUED:          0  USEFUL:          0  USELESS:          0
ITLB USEFUL LOAD PREFETCHES:          0 PREFETCH ISSUED TO LOWER LEVEL:          0  ACCURACY: -nan
ITLB TIMELY PREFETCHES:          0 LATE PREFETCHES: 0 DROPPED PREFETCHES: 0
ITLB PREFETCHES SAME FILL-ORIGIN LEVEL: 0 DIFFERENT FILL-ORIGIN LEVEL: 0
ITLB AVERAGE MISS LATENCY: -nan cycles
ITLB RQ	ACCESS:    9689159	FORWARD:          0	MERGED:     536161	TO_CACHE:    9152998

DTLB TOTAL     ACCESS:    7451172  HIT:    6140538  MISS:    1310634  HIT %:    82.4104  MISS %:    17.5896   MPKI: 26.2127
DTLB LOAD TRANSLATION ACCESS:    7451172  HIT:    6140538  MISS:    1310634  HIT %:    82.4104  MISS %:    17.5896   MPKI: 26.2127
DTLB PREFETCH  REQUESTED:          0  ISSUED:          0  USEFUL:          0  USELESS:          0
DTLB USEFUL LOAD PREFETCHES:          0 PREFETCH ISSUED TO LOWER LEVEL:          0  ACCURACY: -nan
DTLB TIMELY PREFETCHES:          0 LATE PREFETCHES: 0 DROPPED PREFETCHES: 0
DTLB PREFETCHES SAME FILL-ORIGIN LEVEL: 0 DIFFERENT FILL-ORIGIN LEVEL: 0
DTLB AVERAGE MISS LATENCY: 70.6014 cycles
DTLB RQ	ACCESS:    8657830	FORWARD:          0	MERGED:    1184683	TO_CACHE:    7473147

STLB TOTAL     ACCESS:    3538389  HIT:    2417026  MISS:    1121363  HIT %:    68.3087  MISS %:    31.6913   MPKI: 22.4273
STLB LOAD TRANSLATION ACCESS:    1310634  HIT:     189274  MISS:    1121360  HIT %:    14.4414  MISS %:    85.5586   MPKI: 22.4272
STLB TRANSLATION FROM L1D PREFETCHER ACCESS:    2227755  HIT:    2227752  MISS:          3  HIT %:    99.9999  MISS %: 0.000134665   MPKI: 6e-05
STLB PREFETCH  REQUESTED:          0  ISSUED:          0  USEFUL:          2  USELESS:          1
STLB USEFUL LOAD PREFETCHES:          2 PREFETCH ISSUED TO LOWER LEVEL:          0  ACCURACY: inf
STLB TIMELY PREFETCHES:          2 LATE PREFETCHES: 0 DROPPED PREFETCHES: 0
STLB PREFETCHES SAME FILL-ORIGIN LEVEL: 0 DIFFERENT FILL-ORIGIN LEVEL: 0
STLB AVERAGE MISS LATENCY: 71.9629 cycles
STLB RQ	ACCESS:    4400076	FORWARD:          0	MERGED:     861686	TO_CACHE:    3538390

STLB Hit, L1D data hit: 0
STLB Hit, L2C data hit: 0
STLB Hit, LLC data hit: 0
STLB Hit, LLC data miss: 0
STLB STLB hints to L2: 0
L1D TOTAL     ACCESS:   11335969  HIT:    6521878  MISS:    4814091  HIT %:    57.5326  MISS %:    42.4674   MPKI: 96.2818
L1D LOAD      ACCESS:    6403573  HIT:    4115027  MISS:    2288546  HIT %:    64.2614  MISS %:    35.7386   MPKI: 45.7709
L1D RFO       ACCESS:    2217237  HIT:    2146586  MISS:      70651  HIT %:    96.8136  MISS %:    3.18644   MPKI: 1.41302
L1D PREFETCH  ACCESS:    2715159  HIT:     260265  MISS:    2454894  HIT %:    9.58563  MISS %:    90.4144   MPKI: 49.0979
L1D PREFETCH  REQUESTED:    6178882  ISSUED:    6178882  USEFUL:      84220  USELESS:    2370685
L1D USEFUL LOAD PREFETCHES:      84220 PREFETCH ISSUED TO LOWER LEVEL:    2463898  ACCURACY: 3.41816
L1D TIMELY PREFETCHES:      84220 LATE PREFETCHES: 8984 DROPPED PREFETCHES: 0
L1D PREFETCHES SAME FILL-ORIGIN LEVEL: 2463898 DIFFERENT FILL-ORIGIN LEVEL: 0
L1D AVERAGE MISS LATENCY: 205442 cycles
L1D RQ	ACCESS:   12323664	FORWARD:          0	MERGED:    5753738	TO_CACHE:    6440591
L1D WQ	ACCESS:    2217254	FORWARD:     129335	MERGED:         15	TO_CACHE:    2217239
L1D PQ	ACCESS:    3089441	FORWARD:          0	MERGED:          0	TO_CACHE:    3089441

L1D UNIQUE REGIONS ACCESSED: 0
L1D REGIONS CONFLICTS: 0
L1D Cross Page Prefetch Requests: 0
L1D Same Page Prefetch Requests: 3854033
L1D ROI Sum of L1D PQ occupancy: 40352654
L1D PREFETCHES PUSHED FROM L2C: 0
L1I TOTAL     ACCESS:    9689159  HIT:    9689159  MISS:          0  HIT %:        100  MISS %:          0   MPKI: 0
L1I LOAD      ACCESS:    9689159  HIT:    9689159  MISS:          0  HIT %:        100  MISS %:          0   MPKI: 0
L1I PREFETCH  REQUESTED:          0  ISSUED:          0  USEFUL:          0  USELESS:          0
L1I USEFUL LOAD PREFETCHES:          0 PREFETCH ISSUED TO LOWER LEVEL:          0  ACCURACY: -nan
L1I TIMELY PREFETCHES:          0 LATE PREFETCHES: 0 DROPPED PREFETCHES: 0
L1I PREFETCHES SAME FILL-ORIGIN LEVEL: 0 DIFFERENT FILL-ORIGIN LEVEL: 0
L1I AVERAGE MISS LATENCY: -nan cycles
L1I RQ	ACCESS:   14496442	FORWARD:          0	MERGED:    4807283	TO_CACHE:    9689159

BTB TOTAL     ACCESS:    6679586  HIT:    6679578  MISS:          8  HIT %:    99.9999  MISS %: 0.000119768   MPKI: 0.00016
BTB BRANCH_DIRECT_JUMP	ACCESS:    1136952  HIT:    1136950  MISS:          2
BTB BRANCH_INDIRECT	ACCESS:          0  HIT:          0  MISS:          0
BTB BRANCH_CONDITIONAL	ACCESS:    3325388  HIT:    3325384  MISS:          4
BTB BRANCH_DIRECT_CALL	ACCESS:    1108623  HIT:    1108622  MISS:          1
BTB BRANCH_INDIRECT_CALL	ACCESS:          0  HIT:          0  MISS:          0
BTB BRANCH_RETURN	ACCESS:    1108623  HIT:    1108622  MISS:          1
BTB BRANCH_OTHER ACCESS:          0  HIT:          0  MISS:          0

L2C TOTAL     ACCESS:    7197362  HIT:    3001036  MISS:    4196326  HIT %:    41.6963  MISS %:    58.3037   MPKI: 83.9265
L2C LOAD      ACCESS:    2279562  HIT:     821114  MISS:    1458448  HIT %:    36.0207  MISS %:    63.9793   MPKI: 29.169
L2C DATA LOAD MPKI: 29.169
L2C INSTRUCTION LOAD MPKI: 0
L2C RFO       ACCESS:      70628  HIT:      10684  MISS:      59944  HIT %:    15.1271  MISS %:    84.8729   MPKI: 1.19888
L2C PREFETCH  ACCESS:    2463900  HIT:     860195  MISS:    1603705  HIT %:    34.9119  MISS %:    65.0881   MPKI: 32.0741
L2C DATA PREFETCH MPKI: 32.0741
L2C INSTRUCTION PREFETCH MPKI: 0
L2C WRITEBACK ACCESS:    1108602  HIT:    1108588  MISS:         14  HIT %:    99.9987  MISS %: 0.00126285   MPKI: 0.00028
L2C LOAD TRANSLATION ACCESS:    1274664  HIT:     200454  MISS:    1074210  HIT %:     15.726  MISS %:     84.274   MPKI: 21.4842
L2C TRANSLATION FROM L1D PREFETCHER ACCESS:          6  HIT:          1  MISS:          5  HIT %:    16.6667  MISS %:    83.3333   MPKI: 0.0001
L2C PREFETCH  REQUESTED:          0  ISSUED:          0  USEFUL:      74519  USELESS:    1529619
L2C USEFUL LOAD PREFETCHES:      74519 PREFETCH ISSUED TO LOWER LEVEL:    1603706  ACCURACY: 4.64667
L2C TIMELY PREFETCHES:      74519 LATE PREFETCHES: 0 DROPPED PREFETCHES: 0
L2C PREFETCHES SAME FILL-ORIGIN LEVEL: 0 DIFFERENT FILL-ORIGIN LEVEL: 0
L2C AVERAGE MISS LATENCY: 102.347 cycles
L2C RQ	ACCESS:    3624861	FORWARD:          0	MERGED:          0	TO_CACHE:    3624861
L2C WQ	ACCESS:    1108602	FORWARD:          0	MERGED:          0	TO_CACHE:    1108602
L2C PQ	ACCESS:    2463898	FORWARD:          0	MERGED:          0	TO_CACHE:    2463898

L2C Instructions Evicting Data 0
L2C Translations Evicting Data 736699
L2C Data Evicting Data 2385283
L2C Instructions Evicting Instructions 0
L2C Translations Evicting Instructions 0
L2C Data Evicting Instructions 0
L2C Instructions Evicting Translations 0
L2C Translations Evicting Translations 337516
L2C Data Evicting Translations 736814
L2C Dense regions hint from L2: 0
PSCL5 TOTAL     ACCESS:    1121364  HIT:    1121364  MISS:          0  HIT %:        100  MISS %:          0   MPKI: 0
PSCL5 LOAD TRANSLATION ACCESS:    1121361  HIT:    1121361  MISS:          0  HIT %:        100  MISS %:          0   MPKI: 0
PSCL5 TRANSLATION FROM L1D PREFETCHER ACCESS:          3  HIT:          3  MISS:          0  HIT %:        100  MISS %:          0   MPKI: 0
PSCL5 PREFETCH  REQUESTED:          0  ISSUED:          0  USEFUL:          0  USELESS:          0
PSCL5 USEFUL LOAD PREFETCHES:          0 PREFETCH ISSUED TO LOWER LEVEL:          0  ACCURACY: -nan
PSCL5 TIMELY PREFETCHES:          0 LATE PREFETCHES: 0 DROPPED PREFETCHES: 0
PSCL5 PREFETCHES SAME FILL-ORIGIN LEVEL: 0 DIFFERENT FILL-ORIGIN LEVEL: 0

PSCL4 TOTAL     ACCESS:    1121364  HIT:    1121364  MISS:          0  HIT %:        100  MISS %:          0   MPKI: 0
PSCL4 LOAD TRANSLATION ACCESS:    1121361  HIT:    1121361  MISS:          0  HIT %:        100  MISS %:          0   MPKI: 0
PSCL4 TRANSLATION FROM L1D PREFETCHER ACCESS:          3  HIT:          3  MISS:          0  HIT %:        100  MISS %:          0   MPKI: 0
PSCL4 PREFETCH  REQUESTED:          0  ISSUED:          0  USEFUL:          0  USELESS:          0
PSCL4 USEFUL LOAD PREFETCHES:          0 PREFETCH ISSUED TO LOWER LEVEL:          0  ACCURACY: -nan
PSCL4 TIMELY PREFETCHES:          0 LATE PREFETCHES: 0 DROPPED PREFETCHES: 0
PSCL4 PREFETCHES SAME FILL-ORIGIN LEVEL: 0 DIFFERENT FILL-ORIGIN LEVEL: 0

PSCL3 TOTAL     ACCESS:    1121364  HIT:    1121364  MISS:          0  HIT %:        100  MISS %:          0   MPKI: 0
PSCL3 LOAD TRANSLATION ACCESS:    1121361  HIT:    1121361  MISS:          0  HIT %:        100  MISS %:          0   MPKI: 0
PSCL3 TRANSLATION FROM L1D PREFETCHER ACCESS:          3  HIT:          3  MISS:          0  HIT %:        100  MISS %:          0   MPKI: 0
PSCL3 PREFETCH  REQUESTED:          0  ISSUED:          0  USEFUL:          0  USELESS:          0
PSCL3 USEFUL LOAD PREFETCHES:          0 PREFETCH ISSUED TO LOWER LEVEL:          0  ACCURACY: -nan
PSCL3 TIMELY PREFETCHES:          0 LATE PREFETCHES: 0 DROPPED PREFETCHES: 0
PSCL3 PREFETCHES SAME FILL-ORIGIN LEVEL: 0 DIFFERENT FILL-ORIGIN LEVEL: 0

PSCL2 TOTAL     ACCESS:    1121364  HIT:     968057  MISS:     153307  HIT %:    86.3285  MISS %:    13.6715   MPKI: 3.06614
PSCL2 LOAD TRANSLATION ACCESS:    1121364  HIT:     968057  MISS:     153307  HIT %:    86.3285  MISS %:    13.6715   MPKI: 3.06614
PSCL2 PREFETCH  REQUESTED:          0  ISSUED:          0  USEFUL:          0  USELESS:          0
PSCL2 USEFUL LOAD PREFETCHES:          0 PREFETCH ISSUED TO LOWER LEVEL:          0  ACCURACY: -nan
PSCL2 TIMELY PREFETCHES:          0 LATE PREFETCHES: 0 DROPPED PREFETCHES: 0
PSCL2 PREFETCHES SAME FILL-ORIGIN LEVEL: 0 DIFFERENT FILL-ORIGIN LEVEL: 0

LLC TOTAL     ACCESS:    5305029  HIT:    3614081  MISS:    1690948  HIT %:    68.1256  MISS %:    31.8744   MPKI: 33.819
LLC LOAD      ACCESS:    1458447  HIT:     746819  MISS:     711628  HIT %:    51.2065  MISS %:    48.7935   MPKI: 14.2326
LLC RFO       ACCESS:      59944  HIT:      59940  MISS:          4  HIT %:    99.9933  MISS %: 0.00667289   MPKI: 8e-05
LLC PREFETCH  ACCESS:    1603705  HIT:     627398  MISS:     976307  HIT %:    39.1218  MISS %:    60.8782   MPKI: 19.5261
LLC WRITEBACK ACCESS:    1108718  HIT:    1108718  MISS:          0  HIT %:        100  MISS %:          0   MPKI: 0
LLC LOAD TRANSLATION ACCESS:    1074210  HIT:    1071202  MISS:       3008  HIT %:      99.72  MISS %:    0.28002   MPKI: 0.06016
LLC TRANSLATION FROM L1D PREFETCHER ACCESS:          5  HIT:          4  MISS:          1  HIT %:         80  MISS %:         20   MPKI: 2e-05
LLC PREFETCH  REQUESTED:          0  ISSUED:          0  USEFUL:     490360  USELESS:     490642
LLC USEFUL LOAD PREFETCHES:     490360 PREFETCH ISSUED TO LOWER LEVEL:     976309  ACCURACY: 50.2259
LLC TIMELY PREFETCHES:     490360 LATE PREFETCHES: 0 DROPPED PREFETCHES: 0
LLC PREFETCHES SAME FILL-ORIGIN LEVEL: 0 DIFFERENT FILL-ORIGIN LEVEL: 0
LLC AVERAGE MISS LATENCY: 178.795 cycles
LLC RQ	ACCESS:    2592608	FORWARD:          0	MERGED:          0	TO_CACHE:    2592608
LLC WQ	ACCESS:    1108719	FORWARD:          0	MERGED:          0	TO_CACHE:    1108719
LLC PQ	ACCESS:    1603706	FORWARD:          0	MERGED:          0	TO_CACHE:    1603706

LLC Dense regions hint to LLC: 0

RAW hits: 977758
Loads Generated: 13301424
Loads sent to L1D: 12323664
Stores Generated: 2217257
Stores sent to L1D: 2217254
Major fault: 0 Minor fault: 27016
Allocated PAGES: 27016

stream: 
stream:times selected: 3313192
stream:pref_filled: 2243330
stream:pref_useful: 65629
stream:pref_late: 8992
stream:misses: 509869
stream:misses_by_poll: 0

CS: 
CS:times selected: 454638
CS:pref_filled: 362594
CS:pref_useful: 196
CS:pref_late: 17
CS:misses: 36414
CS:misses_by_poll: 244

CPLX: 
CPLX:times selected: 3303216
CPLX:pref_filled: 376385
CPLX:pref_useful: 21544
CPLX:pref_late: 458
CPLX:misses: 2149990
CPLX:misses_by_poll: 419

NL_L1: 
NL:times selected: 37099
NL:pref_filled: 26857
NL:pref_useful: 100
NL:pref_late: 2
NL:misses: 30107
NL:misses_by_poll: 2

total selections: 7108145
total_filled: 2454894
total_useful: 84220
total_late: 9623
total_polluted: 665
total_misses_after_warmup: 2325564
conflicts: 1
Degree Incremented Times: 0
Degree Decremented Times: 125952

L1 IP Table Write Accesses: 6440591
L1 IP Table Read Accesses: 6440590
L1 RST Write Accesses: 2767632
L1 RST Read Accesses: 5535264
L1 CSPT Write Accesses: 2767632
L1 CSPT Read Accesses: 5528871
L1 RR Filter Tag Write Accesses: 3089441
L1 RR Filter Tag Read Accesses: 104993410
L1 IP Table Tag Write Accesses: 6440591
L1 IP Table Tag Read Accesses: 6440591
L1 RST Tag Write Accesses: 0
L1 RST Tag Read Accesses: 24698268
L1 RR Filter Write Accesses: 0
L1 RR Filter Read Accesses: 3307188
test: 1985245
L2 IP Table Read Accesses: 9485022
L2 IP Table Write Accesses: 7205460
L2 IP Table Tag Read Accesses: 4742511
L2 IP Table Tag Write Accesses: 4742511

DRAM Statistics
 CHANNEL 0
 RQ ROW_BUFFER_HIT:       9197  ROW_BUFFER_MISS:    1681752
 DBUS_CONGESTED:        141
 WQ ROW_BUFFER_HIT:     260077  ROW_BUFFER_MISS:     844211  FULL:          0

 AVG_CONGESTED_CYCLE: 4
 All warmup complete: 2
Channel 0 Bank busy for read cycles: 0
Channel 0 Bank busy for write cycles: 0
Channel 0
Rank 0
0banks busy for read cycles: 2662173
0banks busy for write cycles: 39098
1banks busy for read cycles: 48991526
1banks busy for write cycles: 4508975
2banks busy for read cycles: 36870824
2banks busy for write cycles: 6263695
3banks busy for read cycles: 20217903
3banks busy for write cycles: 7984329
4banks busy for read cycles: 10686108
4banks busy for write cycles: 9085256
5banks busy for read cycles: 3937229
5banks busy for write cycles: 9307607
6banks busy for read cycles: 1029393
6banks busy for write cycles: 8363209
7banks busy for read cycles: 101450
7banks busy for write cycles: 6426843
8banks busy for read cycles: 6122
8banks busy for write cycles: 4167573

CPU 0 Branch Prediction Accuracy: 99.9717% MPKI: 0.04406 Average ROB Occupancy at Mispredict: 167.91
Branch types
NOT_BRANCH: 42211293 84.4226%
BRANCH_DIRECT_JUMP: 1136952 2.2739%
BRANCH_INDIRECT: 0 0%
BRANCH_CONDITIONAL: 4434492 8.86898%
BRANCH_DIRECT_CALL: 1108623 2.21725%
BRANCH_INDIRECT_CALL: 0 0%
BRANCH_RETURN: 1108623 2.21725%
BRANCH_OTHER: 0 0%

@sumon_overall_L1D     84220      8984   2370685   2454894   6178882   6178882
@Sumon_Early_by_class_L1D     63599       191     20345         2
@Sumon_Late_by_class_L1D      8634        17       229         2

@Sumon_Early_by_cycle_L1D     17477     29370     22740      6592      3685      3204       353       361       236        91        45        66
@Sumon_Late_by_cycle_L1D      6329      2507       143         4         1         0         0         0         0         0         0         0
@Sumon_Early_stream_L1D     16506     26749     17400      1571       215       204       311       305       173        66        35        64
@Sumon_Early_CS_L1D        28        64        74        21         4         0         0         0         0         0         0         0
@Sumon_Early_CPLX_L1D       926      2528      5252      4998      3465      2997        35        51        56        25        10         2
@Sumon_Late_stream_L1D      6020      2475       134         4         1         0         0         0         0         0         0         0
@Sumon_Late_CS_L1D        16         1         0         0         0         0         0         0         0         0         0         0
@Sumon_Late_CPLX_L1D       191        29         9         0         0         0         0         0         0         0         0         0
@sumon_overall_L2C     74519         0   1529619   1603710         0         0
@Sumon_Early_by_class_L2C     73321        15      1048         0
@Sumon_Late_by_class_L2C         0         0         0         0

@Sumon_Early_by_cycle_L2C         0         0         0         0         0         0         0        13        36       307       275     73888
@Sumon_Late_by_cycle_L2C         0         0         0         0         0         0         0         0         0         0         0         0
@Sumon_Early_stream_L2C         0         0         0         0         0         0         0        13        25       229       170     72884
@Sumon_Early_CS_L2C         0         0         0         0         0         0         0         0         0         0         1        14
@Sumon_Early_CPLX_L2C         0         0         0         0         0         0         0         0        11        72       103       862
@Sumon_Late_stream_L2C         0         0         0         0         0         0         0         0         0         0         0         0
@Sumon_Late_CS_L2C         0         0         0         0         0         0         0         0         0         0         0         0
@Sumon_Late_CPLX_L2C         0         0         0         0         0         0         0         0         0         0         0         0
DRAM PAGES: 1048576
Allocated PAGES: 27016
