
*** ChampSim Multicore Out-of-Order Simulator ***

Warmup Instructions: 10000000
Simulation Instructions: 50000000
Number of CPUs: 1
LLC sets: 2048
LLC ways: 16
Off-chip DRAM Size: 4096 MB Channels: 1 Width: 64-bit Data Rate: 6400 MT/s
CPU 0 runs traces/SPEC2017/605.mcf_s-994B.champsimtrace.xz
.xz
CPU 0 Bimodal branch predictor
BTB has LRU replacement policy
ITLB has LRU replacement policy
DTLB has LRU replacement policy
STLB has LRU replacement policy
L1I has LRU replacement policy
IP Table Entries: 256
Initialize SRRIP state for L1D
IP_Table L2 entries: 256
L2C has LRU replacement policy
LLC has LRU replacement policy
Heartbeat CPU 0 instructions: 10000000 cycles: 3241930 heartbeat IPC: 3.08458 cumulative IPC: 3.08458 (Simulation time: 0 hr 28 min 30 sec) 

Warmup complete CPU 0 instructions: 10000004 cycles: 3241931 (Simulation time: 0 hr 28 min 30 sec) 

Heartbeat CPU 0 instructions: 20000000 cycles: 39340581 heartbeat IPC: 0.277019 cumulative IPC: 0.277019 (Simulation time: 0 hr 52 min 31 sec) 
Heartbeat CPU 0 instructions: 30000003 cycles: 78129671 heartbeat IPC: 0.257805 cumulative IPC: 0.267066 (Simulation time: 1 hr 16 min 46 sec) 
Heartbeat CPU 0 instructions: 40000001 cycles: 113016352 heartbeat IPC: 0.286642 cumulative IPC: 0.273288 (Simulation time: 1 hr 40 min 18 sec) 
Heartbeat CPU 0 instructions: 50000001 cycles: 204294830 heartbeat IPC: 0.109555 cumulative IPC: 0.198953 (Simulation time: 2 hr 3 min 21 sec) 
Heartbeat CPU 0 instructions: 60000000 cycles: 249566442 heartbeat IPC: 0.220889 cumulative IPC: 0.202984 (Simulation time: 2 hr 13 min 28 sec) 
Finished CPU 0 instructions: 50000000 cycles: 246324517 cumulative IPC: 0.202984 (Simulation time: 2 hr 13 min 28 sec) 

ChampSim completed all CPUs

Region of Interest Statistics

CPU 0 cumulative IPC: 0.202984 instructions: 50000000 cycles: 246324517
ITLB TOTAL     ACCESS:    8952351  HIT:    8952351  MISS:          0  HIT %:        100  MISS %:          0   MPKI: 0
ITLB LOAD TRANSLATION ACCESS:    8952351  HIT:    8952351  MISS:          0  HIT %:        100  MISS %:          0   MPKI: 0
ITLB PREFETCH  REQUESTED:          0  ISSUED:          0  USEFUL:          0  USELESS:          0
ITLB USEFUL LOAD PREFETCHES:          0 PREFETCH ISSUED TO LOWER LEVEL:          0  ACCURACY: -nan
ITLB TIMELY PREFETCHES:          0 LATE PREFETCHES: 0 DROPPED PREFETCHES: 0
ITLB PREFETCHES SAME FILL-ORIGIN LEVEL: 0 DIFFERENT FILL-ORIGIN LEVEL: 0
ITLB AVERAGE MISS LATENCY: -nan cycles
ITLB RQ	ACCESS:    9151984	FORWARD:          0	MERGED:     199635	TO_CACHE:    8952349

DTLB TOTAL     ACCESS:   16537954  HIT:   15803820  MISS:     734134  HIT %:    95.5609  MISS %:    4.43909   MPKI: 14.6827
DTLB LOAD TRANSLATION ACCESS:   16537954  HIT:   15803820  MISS:     734134  HIT %:    95.5609  MISS %:    4.43909   MPKI: 14.6827
DTLB PREFETCH  REQUESTED:          0  ISSUED:          0  USEFUL:          0  USELESS:          0
DTLB USEFUL LOAD PREFETCHES:          0 PREFETCH ISSUED TO LOWER LEVEL:          0  ACCURACY: -nan
DTLB TIMELY PREFETCHES:          0 LATE PREFETCHES: 0 DROPPED PREFETCHES: 0
DTLB PREFETCHES SAME FILL-ORIGIN LEVEL: 0 DIFFERENT FILL-ORIGIN LEVEL: 0
DTLB AVERAGE MISS LATENCY: 75.6874 cycles
DTLB RQ	ACCESS:   19373722	FORWARD:          0	MERGED:    2686947	TO_CACHE:   16686775

STLB TOTAL     ACCESS:    3724119  HIT:    3351765  MISS:     372354  HIT %:    90.0016  MISS %:    9.99845   MPKI: 7.44708
STLB LOAD TRANSLATION ACCESS:     734134  HIT:     361875  MISS:     372259  HIT %:    49.2928  MISS %:    50.7072   MPKI: 7.44518
STLB TRANSLATION FROM L1D PREFETCHER ACCESS:    2989985  HIT:    2989890  MISS:         95  HIT %:    99.9968  MISS %: 0.00317727   MPKI: 0.0019
STLB PREFETCH  REQUESTED:          0  ISSUED:          0  USEFUL:         92  USELESS:          3
STLB USEFUL LOAD PREFETCHES:         92 PREFETCH ISSUED TO LOWER LEVEL:          0  ACCURACY: inf
STLB TIMELY PREFETCHES:         92 LATE PREFETCHES: 0 DROPPED PREFETCHES: 0
STLB PREFETCHES SAME FILL-ORIGIN LEVEL: 0 DIFFERENT FILL-ORIGIN LEVEL: 0
STLB AVERAGE MISS LATENCY: 130.861 cycles
STLB RQ	ACCESS:    4475259	FORWARD:          0	MERGED:     751070	TO_CACHE:    3724189

STLB Hit, L1D data hit: 0
STLB Hit, L2C data hit: 0
STLB Hit, LLC data hit: 0
STLB Hit, LLC data miss: 0
STLB STLB hints to L2: 0
L1D TOTAL     ACCESS:   22635498  HIT:   19365788  MISS:    3269710  HIT %:    85.5549  MISS %:    14.4451   MPKI: 65.3942
L1D LOAD      ACCESS:   14257036  HIT:   12606792  MISS:    1650244  HIT %:    88.4251  MISS %:    11.5749   MPKI: 33.0049
L1D RFO       ACCESS:    5072096  HIT:    5060799  MISS:      11297  HIT %:    99.7773  MISS %:   0.222728   MPKI: 0.22594
L1D PREFETCH  ACCESS:    3306366  HIT:    1698197  MISS:    1608169  HIT %:    51.3614  MISS %:    48.6386   MPKI: 32.1634
L1D PREFETCH  REQUESTED:    7484586  ISSUED:    7484586  USEFUL:     229862  USELESS:    1378224
L1D USEFUL LOAD PREFETCHES:     229862 PREFETCH ISSUED TO LOWER LEVEL:    1781660  ACCURACY: 12.9016
L1D TIMELY PREFETCHES:     229862 LATE PREFETCHES: 173278 DROPPED PREFETCHES: 0
L1D PREFETCHES SAME FILL-ORIGIN LEVEL: 1781660 DIFFERENT FILL-ORIGIN LEVEL: 0
L1D AVERAGE MISS LATENCY: 5.79774e+06 cycles
L1D RQ	ACCESS:   17011188	FORWARD:          0	MERGED:    1599944	TO_CACHE:   14282165
L1D WQ	ACCESS:    5114926	FORWARD:    1131415	MERGED:      23369	TO_CACHE:    5091557
L1D PQ	ACCESS:    3743461	FORWARD:          0	MERGED:          0	TO_CACHE:    3741125

L1D UNIQUE REGIONS ACCESSED: 0
L1D REGIONS CONFLICTS: 0
L1D Cross Page Prefetch Requests: 0
L1D Same Page Prefetch Requests: 4417424
L1D ROI Sum of L1D PQ occupancy: 48625397
L1D PREFETCHES PUSHED FROM L2C: 0
L1I TOTAL     ACCESS:    9151986  HIT:    9151986  MISS:          0  HIT %:        100  MISS %:          0   MPKI: 0
L1I LOAD      ACCESS:    9151986  HIT:    9151986  MISS:          0  HIT %:        100  MISS %:          0   MPKI: 0
L1I PREFETCH  REQUESTED:          0  ISSUED:          0  USEFUL:          0  USELESS:          0
L1I USEFUL LOAD PREFETCHES:          0 PREFETCH ISSUED TO LOWER LEVEL:          0  ACCURACY: -nan
L1I TIMELY PREFETCHES:          0 LATE PREFETCHES: 0 DROPPED PREFETCHES: 0
L1I PREFETCHES SAME FILL-ORIGIN LEVEL: 0 DIFFERENT FILL-ORIGIN LEVEL: 0
L1I AVERAGE MISS LATENCY: -nan cycles
L1I RQ	ACCESS:   14773723	FORWARD:          0	MERGED:    5621739	TO_CACHE:    9151984

BTB TOTAL     ACCESS:   11195514  HIT:   10468271  MISS:     727243  HIT %:    93.5042  MISS %:    6.49584   MPKI: 14.5449
BTB BRANCH_DIRECT_JUMP	ACCESS:    1118881  HIT:    1118860  MISS:         21
BTB BRANCH_INDIRECT	ACCESS:          0  HIT:          0  MISS:          0
BTB BRANCH_CONDITIONAL	ACCESS:    6895963  HIT:    6895921  MISS:         42
BTB BRANCH_DIRECT_CALL	ACCESS:    1540838  HIT:    1540825  MISS:         13
BTB BRANCH_INDIRECT_CALL	ACCESS:      49500  HIT:      49492  MISS:          8
BTB BRANCH_RETURN	ACCESS:    1590332  HIT:     863173  MISS:     727159
BTB BRANCH_OTHER ACCESS:          0  HIT:          0  MISS:          0

L2C TOTAL     ACCESS:    4290028  HIT:    1844589  MISS:    2445439  HIT %:    42.9971  MISS %:    57.0029   MPKI: 48.9088
L2C LOAD      ACCESS:    1476965  HIT:     445504  MISS:    1031461  HIT %:    30.1635  MISS %:    69.8365   MPKI: 20.6292
L2C DATA LOAD MPKI: 20.6292
L2C INSTRUCTION LOAD MPKI: 0
L2C RFO       ACCESS:      11084  HIT:       9260  MISS:       1824  HIT %:    83.5438  MISS %:    16.4562   MPKI: 0.03648
L2C PREFETCH  ACCESS:    2060896  HIT:     779123  MISS:    1281773  HIT %:    37.8051  MISS %:    62.1949   MPKI: 25.6355
L2C DATA PREFETCH MPKI: 25.6355
L2C INSTRUCTION PREFETCH MPKI: 0
L2C WRITEBACK ACCESS:     132231  HIT:     131523  MISS:        708  HIT %:    99.4646  MISS %:   0.535427   MPKI: 0.01416
L2C LOAD TRANSLATION ACCESS:     608704  HIT:     479121  MISS:     129583  HIT %:    78.7117  MISS %:    21.2883   MPKI: 2.59166
L2C TRANSLATION FROM L1D PREFETCHER ACCESS:        148  HIT:         58  MISS:         90  HIT %:    39.1892  MISS %:    60.8108   MPKI: 0.0018
L2C PREFETCH  REQUESTED:     302111  ISSUED:     302111  USEFUL:      21783  USELESS:    1260543
L2C USEFUL LOAD PREFETCHES:      21783 PREFETCH ISSUED TO LOWER LEVEL:    1281775  ACCURACY: 1.69944
L2C TIMELY PREFETCHES:      21783 LATE PREFETCHES: 2 DROPPED PREFETCHES: 0
L2C PREFETCHES SAME FILL-ORIGIN LEVEL: 77074 DIFFERENT FILL-ORIGIN LEVEL: 0
L2C AVERAGE MISS LATENCY: 160.744 cycles
L2C RQ	ACCESS:    2096902	FORWARD:          0	MERGED:          0	TO_CACHE:    2096901
L2C WQ	ACCESS:     132231	FORWARD:          6	MERGED:          0	TO_CACHE:     132231
L2C PQ	ACCESS:    2083771	FORWARD:          0	MERGED:      22825	TO_CACHE:    2060941

L2C Instructions Evicting Data 0
L2C Translations Evicting Data 121714
L2C Data Evicting Data 2193874
L2C Instructions Evicting Instructions 0
L2C Translations Evicting Instructions 0
L2C Data Evicting Instructions 0
L2C Instructions Evicting Translations 0
L2C Translations Evicting Translations 7959
L2C Data Evicting Translations 121184
L2C Dense regions hint from L2: 0
PSCL5 TOTAL     ACCESS:     372354  HIT:     372354  MISS:          0  HIT %:        100  MISS %:          0   MPKI: 0
PSCL5 LOAD TRANSLATION ACCESS:     372259  HIT:     372259  MISS:          0  HIT %:        100  MISS %:          0   MPKI: 0
PSCL5 TRANSLATION FROM L1D PREFETCHER ACCESS:         95  HIT:         95  MISS:          0  HIT %:        100  MISS %:          0   MPKI: 0
PSCL5 PREFETCH  REQUESTED:          0  ISSUED:          0  USEFUL:          0  USELESS:          0
PSCL5 USEFUL LOAD PREFETCHES:          0 PREFETCH ISSUED TO LOWER LEVEL:          0  ACCURACY: -nan
PSCL5 TIMELY PREFETCHES:          0 LATE PREFETCHES: 0 DROPPED PREFETCHES: 0
PSCL5 PREFETCHES SAME FILL-ORIGIN LEVEL: 0 DIFFERENT FILL-ORIGIN LEVEL: 0

PSCL4 TOTAL     ACCESS:     372354  HIT:     372354  MISS:          0  HIT %:        100  MISS %:          0   MPKI: 0
PSCL4 LOAD TRANSLATION ACCESS:     372259  HIT:     372259  MISS:          0  HIT %:        100  MISS %:          0   MPKI: 0
PSCL4 TRANSLATION FROM L1D PREFETCHER ACCESS:         95  HIT:         95  MISS:          0  HIT %:        100  MISS %:          0   MPKI: 0
PSCL4 PREFETCH  REQUESTED:          0  ISSUED:          0  USEFUL:          0  USELESS:          0
PSCL4 USEFUL LOAD PREFETCHES:          0 PREFETCH ISSUED TO LOWER LEVEL:          0  ACCURACY: -nan
PSCL4 TIMELY PREFETCHES:          0 LATE PREFETCHES: 0 DROPPED PREFETCHES: 0
PSCL4 PREFETCHES SAME FILL-ORIGIN LEVEL: 0 DIFFERENT FILL-ORIGIN LEVEL: 0

PSCL3 TOTAL     ACCESS:     372354  HIT:     372354  MISS:          0  HIT %:        100  MISS %:          0   MPKI: 0
PSCL3 LOAD TRANSLATION ACCESS:     372259  HIT:     372259  MISS:          0  HIT %:        100  MISS %:          0   MPKI: 0
PSCL3 TRANSLATION FROM L1D PREFETCHER ACCESS:         95  HIT:         95  MISS:          0  HIT %:        100  MISS %:          0   MPKI: 0
PSCL3 PREFETCH  REQUESTED:          0  ISSUED:          0  USEFUL:          0  USELESS:          0
PSCL3 USEFUL LOAD PREFETCHES:          0 PREFETCH ISSUED TO LOWER LEVEL:          0  ACCURACY: -nan
PSCL3 TIMELY PREFETCHES:          0 LATE PREFETCHES: 0 DROPPED PREFETCHES: 0
PSCL3 PREFETCHES SAME FILL-ORIGIN LEVEL: 0 DIFFERENT FILL-ORIGIN LEVEL: 0

PSCL2 TOTAL     ACCESS:     372354  HIT:     135346  MISS:     237008  HIT %:    36.3487  MISS %:    63.6513   MPKI: 4.74016
PSCL2 LOAD TRANSLATION ACCESS:     372312  HIT:     135304  MISS:     237008  HIT %:    36.3416  MISS %:    63.6584   MPKI: 4.74016
PSCL2 TRANSLATION FROM L1D PREFETCHER ACCESS:         42  HIT:         42  MISS:          0  HIT %:        100  MISS %:          0   MPKI: 0
PSCL2 PREFETCH  REQUESTED:          0  ISSUED:          0  USEFUL:          0  USELESS:          0
PSCL2 USEFUL LOAD PREFETCHES:          0 PREFETCH ISSUED TO LOWER LEVEL:          0  ACCURACY: -nan
PSCL2 TIMELY PREFETCHES:          0 LATE PREFETCHES: 0 DROPPED PREFETCHES: 0
PSCL2 PREFETCHES SAME FILL-ORIGIN LEVEL: 0 DIFFERENT FILL-ORIGIN LEVEL: 0

LLC TOTAL     ACCESS:    2537771  HIT:     639668  MISS:    1898103  HIT %:    25.2059  MISS %:    74.7941   MPKI: 37.9621
LLC LOAD      ACCESS:    1031461  HIT:     272228  MISS:     759233  HIT %:    26.3925  MISS %:    73.6075   MPKI: 15.1847
LLC RFO       ACCESS:       1822  HIT:       1309  MISS:        513  HIT %:    71.8441  MISS %:    28.1559   MPKI: 0.01026
LLC PREFETCH  ACCESS:    1281773  HIT:     244015  MISS:    1037758  HIT %:    19.0373  MISS %:    80.9627   MPKI: 20.7552
LLC WRITEBACK ACCESS:      93042  HIT:      92825  MISS:        217  HIT %:    99.7668  MISS %:   0.233228   MPKI: 0.00434
LLC LOAD TRANSLATION ACCESS:     129583  HIT:      29240  MISS:     100343  HIT %:    22.5647  MISS %:    77.4353   MPKI: 2.00686
LLC TRANSLATION FROM L1D PREFETCHER ACCESS:         90  HIT:         51  MISS:         39  HIT %:    56.6667  MISS %:    43.3333   MPKI: 0.00078
LLC PREFETCH  REQUESTED:          0  ISSUED:          0  USEFUL:      16615  USELESS:    1021469
LLC USEFUL LOAD PREFETCHES:      16615 PREFETCH ISSUED TO LOWER LEVEL:    1037758  ACCURACY: 1.60105
LLC TIMELY PREFETCHES:      16615 LATE PREFETCHES: 0 DROPPED PREFETCHES: 0
LLC PREFETCHES SAME FILL-ORIGIN LEVEL: 0 DIFFERENT FILL-ORIGIN LEVEL: 0
LLC AVERAGE MISS LATENCY: 167.402 cycles
LLC RQ	ACCESS:    1162956	FORWARD:          0	MERGED:          0	TO_CACHE:    1162956
LLC WQ	ACCESS:      93042	FORWARD:          2	MERGED:          0	TO_CACHE:      93042
LLC PQ	ACCESS:    1281775	FORWARD:          0	MERGED:          0	TO_CACHE:    1281773

LLC Dense regions hint to LLC: 0

RAW hits: 404797
Loads Generated: 17415986
Loads sent to L1D: 17011188
Stores Generated: 5114922
Stores sent to L1D: 5114926
Major fault: 0 Minor fault: 119985
Allocated PAGES: 119985

stream: 
stream:times selected: 5446835
stream:pref_filled: 1307883
stream:pref_useful: 161608
stream:pref_late: 149650
stream:misses: 474206
stream:misses_by_poll: 0

CS: 
CS:times selected: 277313
CS:pref_filled: 121728
CS:pref_useful: 116224
CS:pref_late: 17
CS:misses: 746
CS:misses_by_poll: 54

CPLX: 
CPLX:times selected: 5124313
CPLX:pref_filled: 430127
CPLX:pref_useful: 19622
CPLX:pref_late: 1575
CPLX:misses: 1420801
CPLX:misses_by_poll: 2452

NL_L1: 
NL:times selected: 54410
NL:pref_filled: 17199
NL:pref_useful: 3021
NL:pref_late: 2271
NL:misses: 19444
NL:misses_by_poll: 0

total selections: 10902871
total_filled: 1608169
total_useful: 229862
total_late: 176688
total_polluted: 2506
total_misses_after_warmup: 1675371
conflicts: 49550
Degree Incremented Times: 73438
Degree Decremented Times: 182584

L1 IP Table Write Accesses: 14180600
L1 IP Table Read Accesses: 14131050
L1 RST Write Accesses: 4552790
L1 RST Read Accesses: 9105580
L1 CSPT Write Accesses: 4552790
L1 CSPT Read Accesses: 8832726
L1 RR Filter Tag Write Accesses: 3743461
L1 RR Filter Tag Read Accesses: 158524400
L1 IP Table Tag Write Accesses: 14282163
L1 IP Table Tag Read Accesses: 14282163
L1 RST Tag Write Accesses: 0
L1 RST Tag Read Accesses: 42818038
L1 RR Filter Write Accesses: 0
L1 RR Filter Read Accesses: 5793253
test: 3173443
L2 IP Table Read Accesses: 6512949
L2 IP Table Write Accesses: 5036201
L2 IP Table Tag Read Accesses: 3256745
L2 IP Table Tag Write Accesses: 3256745

DRAM Statistics
 CHANNEL 0
 RQ ROW_BUFFER_HIT:     263101  ROW_BUFFER_MISS:    1634781
 DBUS_CONGESTED:        355
 WQ ROW_BUFFER_HIT:      20155  ROW_BUFFER_MISS:      49375  FULL:          0

 AVG_CONGESTED_CYCLE: 4
 All warmup complete: 2
Channel 0 Bank busy for read cycles: 0
Channel 0 Bank busy for write cycles: 0
Channel 0
Rank 0
0banks busy for read cycles: 103198722
0banks busy for write cycles: 53288
1banks busy for read cycles: 55166288
1banks busy for write cycles: 10320034
2banks busy for read cycles: 41732661
2banks busy for write cycles: 2009082
3banks busy for read cycles: 20893124
3banks busy for write cycles: 380415
4banks busy for read cycles: 7662594
4banks busy for write cycles: 67598
5banks busy for read cycles: 3052337
5banks busy for write cycles: 12290
6banks busy for read cycles: 1334452
6banks busy for write cycles: 2130
7banks busy for read cycles: 367255
7banks busy for write cycles: 463
8banks busy for read cycles: 71785
8banks busy for write cycles: 0

CPU 0 Branch Prediction Accuracy: 92.7543% MPKI: 18.162 Average ROB Occupancy at Mispredict: 16.5797
Branch types
NOT_BRANCH: 37466601 74.9332%
BRANCH_DIRECT_JUMP: 1118881 2.23776%
BRANCH_INDIRECT: 0 0%
BRANCH_CONDITIONAL: 8233493 16.467%
BRANCH_DIRECT_CALL: 1540838 3.08168%
BRANCH_INDIRECT_CALL: 49500 0.099%
BRANCH_RETURN: 1590332 3.18066%
BRANCH_OTHER: 0 0%

@sumon_overall_L1D    229862    173278   1378224   1608169   7484586   7484586
@Sumon_Early_by_class_L1D    108652    101352     17865      2218
@Sumon_Late_by_class_L1D    146457        16      1538      2218

@Sumon_Early_by_cycle_L1D     67787     17833      5480      2947      2618     15346     25267     36712     41420     11214      2496       742
@Sumon_Late_by_cycle_L1D    124123     44423      4715        16         1         0         0         0         0         0         0         0
@Sumon_Early_stream_L1D     66248     16934      4766      2246      1758      6048      4146      3306      1934       979       208        79
@Sumon_Early_CS_L1D        53       233       204       303       431      7473     19145     30834     36264      6185       128        99
@Sumon_Early_CPLX_L1D       786       466       419       341       375      1474      1647      2402      3197      4037      2157       564
@Sumon_Late_stream_L1D     98463     43373      4604        16         1         0         0         0         0         0         0         0
@Sumon_Late_CS_L1D         9         7         0         0         0         0         0         0         0         0         0         0
@Sumon_Late_CPLX_L1D      1067       418        53         0         0         0         0         0         0         0         0         0
@sumon_overall_L2C     21783         2   1260543   1281863    302111    302111
@Sumon_Early_by_class_L2C     17011      2545      1789         0
@Sumon_Late_by_class_L2C         0         1         0         0

@Sumon_Early_by_cycle_L2C         2         4         0         2         3        14        35        55       174       985      2365     18144
@Sumon_Late_by_cycle_L2C         2         0         0         0         0         0         0         0         0         0         0         0
@Sumon_Early_stream_L2C         2         1         0         0         0         1         3        13        98       739      1937     14217
@Sumon_Early_CS_L2C         0         3         0         2         3        13        27        32        25        56       119      2265
@Sumon_Early_CPLX_L2C         0         0         0         0         0         0         3        10        45       164       247      1320
@Sumon_Late_stream_L2C         0         0         0         0         0         0         0         0         0         0         0         0
@Sumon_Late_CS_L2C         1         0         0         0         0         0         0         0         0         0         0         0
@Sumon_Late_CPLX_L2C         0         0         0         0         0         0         0         0         0         0         0         0
DRAM PAGES: 1048576
Allocated PAGES: 119985
