
*** ChampSim Multicore Out-of-Order Simulator ***

Warmup Instructions: 10000000
Simulation Instructions: 50000000
Number of CPUs: 1
LLC sets: 2048
LLC ways: 16
Off-chip DRAM Size: 4096 MB Channels: 1 Width: 64-bit Data Rate: 6400 MT/s
CPU 0 runs traces/SPEC2017/605.mcf_s-782B.champsimtrace.xz
.xz
CPU 0 Bimodal branch predictor
BTB has LRU replacement policy
ITLB has LRU replacement policy
DTLB has LRU replacement policy
STLB has LRU replacement policy
L1I has LRU replacement policy
IP Table Entries: 256
Initialize SRRIP state for L1D
IP_Table L2 entries: 256
L2C has LRU replacement policy
LLC has LRU replacement policy
Heartbeat CPU 0 instructions: 10000001 cycles: 3791834 heartbeat IPC: 2.63725 cumulative IPC: 2.63725 (Simulation time: 0 hr 32 min 0 sec) 

Warmup complete CPU 0 instructions: 10000001 cycles: 3791834 (Simulation time: 0 hr 32 min 0 sec) 

Heartbeat CPU 0 instructions: 20000000 cycles: 59515346 heartbeat IPC: 0.179457 cumulative IPC: 0.179457 (Simulation time: 1 hr 9 min 27 sec) 
Heartbeat CPU 0 instructions: 30000001 cycles: 120426426 heartbeat IPC: 0.164174 cumulative IPC: 0.171476 (Simulation time: 1 hr 47 min 4 sec) 
Heartbeat CPU 0 instructions: 40000001 cycles: 180222538 heartbeat IPC: 0.167235 cumulative IPC: 0.170038 (Simulation time: 2 hr 9 min 20 sec) 
Heartbeat CPU 0 instructions: 50000000 cycles: 242612436 heartbeat IPC: 0.160282 cumulative IPC: 0.16749 (Simulation time: 2 hr 20 min 33 sec) 
Heartbeat CPU 0 instructions: 60000000 cycles: 300298436 heartbeat IPC: 0.173352 cumulative IPC: 0.16863 (Simulation time: 2 hr 28 min 0 sec) 
Finished CPU 0 instructions: 50000000 cycles: 296506639 cumulative IPC: 0.16863 (Simulation time: 2 hr 28 min 0 sec) 

ChampSim completed all CPUs

Region of Interest Statistics

CPU 0 cumulative IPC: 0.16863 instructions: 50000000 cycles: 296506639
ITLB TOTAL     ACCESS:    8119814  HIT:    8119814  MISS:          0  HIT %:        100  MISS %:          0   MPKI: 0
ITLB LOAD TRANSLATION ACCESS:    8119814  HIT:    8119814  MISS:          0  HIT %:        100  MISS %:          0   MPKI: 0
ITLB PREFETCH  REQUESTED:          0  ISSUED:          0  USEFUL:          0  USELESS:          0
ITLB USEFUL LOAD PREFETCHES:          0 PREFETCH ISSUED TO LOWER LEVEL:          0  ACCURACY: -nan
ITLB TIMELY PREFETCHES:          0 LATE PREFETCHES: 0 DROPPED PREFETCHES: 0
ITLB PREFETCHES SAME FILL-ORIGIN LEVEL: 0 DIFFERENT FILL-ORIGIN LEVEL: 0
ITLB AVERAGE MISS LATENCY: -nan cycles
ITLB RQ	ACCESS:    8234036	FORWARD:          0	MERGED:     114222	TO_CACHE:    8119814

DTLB TOTAL     ACCESS:   10570040  HIT:    6242541  MISS:    4327499  HIT %:    59.0588  MISS %:    40.9412   MPKI: 86.55
DTLB LOAD TRANSLATION ACCESS:   10570040  HIT:    6242541  MISS:    4327499  HIT %:    59.0588  MISS %:    40.9412   MPKI: 86.55
DTLB PREFETCH  REQUESTED:          0  ISSUED:          0  USEFUL:          0  USELESS:          0
DTLB USEFUL LOAD PREFETCHES:          0 PREFETCH ISSUED TO LOWER LEVEL:          0  ACCURACY: -nan
DTLB TIMELY PREFETCHES:          0 LATE PREFETCHES: 0 DROPPED PREFETCHES: 0
DTLB PREFETCHES SAME FILL-ORIGIN LEVEL: 0 DIFFERENT FILL-ORIGIN LEVEL: 0
DTLB AVERAGE MISS LATENCY: 11.2618 cycles
DTLB RQ	ACCESS:   11696542	FORWARD:          0	MERGED:    1059730	TO_CACHE:   10636812

STLB TOTAL     ACCESS:   11290853  HIT:   11234284  MISS:      56569  HIT %:     99.499  MISS %:   0.501016   MPKI: 1.13138
STLB LOAD TRANSLATION ACCESS:    4327498  HIT:    4270929  MISS:      56569  HIT %:    98.6928  MISS %:     1.3072   MPKI: 1.13138
STLB TRANSLATION FROM L1D PREFETCHER ACCESS:    6963355  HIT:    6963355  MISS:          0  HIT %:        100  MISS %:          0   MPKI: 0
STLB PREFETCH  REQUESTED:          0  ISSUED:          0  USEFUL:          0  USELESS:          0
STLB USEFUL LOAD PREFETCHES:          0 PREFETCH ISSUED TO LOWER LEVEL:          0  ACCURACY: -nan
STLB TIMELY PREFETCHES:          0 LATE PREFETCHES: 0 DROPPED PREFETCHES: 0
STLB PREFETCHES SAME FILL-ORIGIN LEVEL: 0 DIFFERENT FILL-ORIGIN LEVEL: 0
STLB AVERAGE MISS LATENCY: 146.682 cycles
STLB RQ	ACCESS:   12670685	FORWARD:          0	MERGED:    1379836	TO_CACHE:   11290849

STLB Hit, L1D data hit: 0
STLB Hit, L2C data hit: 0
STLB Hit, LLC data hit: 0
STLB Hit, LLC data miss: 0
STLB STLB hints to L2: 0
L1D TOTAL     ACCESS:   18716911  HIT:    6159333  MISS:   12557578  HIT %:    32.9079  MISS %:    67.0921   MPKI: 251.152
L1D LOAD      ACCESS:   10574111  HIT:    4562649  MISS:    6011462  HIT %:    43.1492  MISS %:    56.8508   MPKI: 120.229
L1D RFO       ACCESS:     947636  HIT:     930885  MISS:      16751  HIT %:    98.2323  MISS %:    1.76766   MPKI: 0.33502
L1D PREFETCH  ACCESS:    7195164  HIT:     665799  MISS:    6529365  HIT %:    9.25342  MISS %:    90.7466   MPKI: 130.587
L1D PREFETCH  REQUESTED:   16686954  ISSUED:   16686892  USEFUL:    1641868  USELESS:    4887494
L1D USEFUL LOAD PREFETCHES:    1641868 PREFETCH ISSUED TO LOWER LEVEL:    7221941  ACCURACY: 22.7344
L1D TIMELY PREFETCHES:    1641868 LATE PREFETCHES: 692569 DROPPED PREFETCHES: 0
L1D PREFETCHES SAME FILL-ORIGIN LEVEL: 7221941 DIFFERENT FILL-ORIGIN LEVEL: 0
L1D AVERAGE MISS LATENCY: 8.39753e+06 cycles
L1D RQ	ACCESS:   17873609	FORWARD:          0	MERGED:    7015804	TO_CACHE:   10706434
L1D WQ	ACCESS:    1026019	FORWARD:     151887	MERGED:      35911	TO_CACHE:     990108
L1D PQ	ACCESS:    8343704	FORWARD:          0	MERGED:          0	TO_CACHE:    8343188

L1D UNIQUE REGIONS ACCESSED: 0
L1D REGIONS CONFLICTS: 0
L1D Cross Page Prefetch Requests: 0
L1D Same Page Prefetch Requests: 9972147
L1D ROI Sum of L1D PQ occupancy: 111686973
L1D PREFETCHES PUSHED FROM L2C: 0
L1I TOTAL     ACCESS:    8234036  HIT:    8234036  MISS:          0  HIT %:        100  MISS %:          0   MPKI: 0
L1I LOAD      ACCESS:    8234036  HIT:    8234036  MISS:          0  HIT %:        100  MISS %:          0   MPKI: 0
L1I PREFETCH  REQUESTED:          0  ISSUED:          0  USEFUL:          0  USELESS:          0
L1I USEFUL LOAD PREFETCHES:          0 PREFETCH ISSUED TO LOWER LEVEL:          0  ACCURACY: -nan
L1I TIMELY PREFETCHES:          0 LATE PREFETCHES: 0 DROPPED PREFETCHES: 0
L1I PREFETCHES SAME FILL-ORIGIN LEVEL: 0 DIFFERENT FILL-ORIGIN LEVEL: 0
L1I AVERAGE MISS LATENCY: -nan cycles
L1I RQ	ACCESS:   11138510	FORWARD:          0	MERGED:    2904474	TO_CACHE:    8234036

BTB TOTAL     ACCESS:   14274117  HIT:   14220061  MISS:      54056  HIT %:    99.6213  MISS %:   0.378699   MPKI: 1.08112
BTB BRANCH_DIRECT_JUMP	ACCESS:    1888246  HIT:    1888209  MISS:         37
BTB BRANCH_INDIRECT	ACCESS:          0  HIT:          0  MISS:          0
BTB BRANCH_CONDITIONAL	ACCESS:   11987047  HIT:   11986967  MISS:         80
BTB BRANCH_DIRECT_CALL	ACCESS:     184334  HIT:     184317  MISS:         17
BTB BRANCH_INDIRECT_CALL	ACCESS:      15078  HIT:      15070  MISS:          8
BTB BRANCH_RETURN	ACCESS:     199412  HIT:     145498  MISS:      53914
BTB BRANCH_OTHER ACCESS:          0  HIT:          0  MISS:          0

L2C TOTAL     ACCESS:   14093062  HIT:    2732614  MISS:   11360448  HIT %:    19.3898  MISS %:    80.6102   MPKI: 227.209
L2C LOAD      ACCESS:    5318874  HIT:     766475  MISS:    4552399  HIT %:    14.4105  MISS %:    85.5895   MPKI: 91.048
L2C DATA LOAD MPKI: 91.048
L2C INSTRUCTION LOAD MPKI: 0
L2C RFO       ACCESS:      16743  HIT:       1066  MISS:      15677  HIT %:    6.36684  MISS %:    93.6332   MPKI: 0.31354
L2C PREFETCH  ACCESS:    8548989  HIT:    1774983  MISS:    6774006  HIT %:    20.7625  MISS %:    79.2375   MPKI: 135.48
L2C DATA PREFETCH MPKI: 135.48
L2C INSTRUCTION PREFETCH MPKI: 0
L2C WRITEBACK ACCESS:     151506  HIT:     151461  MISS:         45  HIT %:    99.9703  MISS %:  0.0297018   MPKI: 0.0009
L2C LOAD TRANSLATION ACCESS:      56950  HIT:      38629  MISS:      18321  HIT %:    67.8297  MISS %:    32.1703   MPKI: 0.36642
L2C PREFETCH  REQUESTED:    4374312  ISSUED:    4374312  USEFUL:     238225  USELESS:    6535918
L2C USEFUL LOAD PREFETCHES:     238225 PREFETCH ISSUED TO LOWER LEVEL:    6804777  ACCURACY: 3.50085
L2C TIMELY PREFETCHES:     238225 LATE PREFETCHES: 30765 DROPPED PREFETCHES: 0
L2C PREFETCHES SAME FILL-ORIGIN LEVEL: 1642978 DIFFERENT FILL-ORIGIN LEVEL: 0
L2C AVERAGE MISS LATENCY: 124.092 cycles
L2C RQ	ACCESS:    5392584	FORWARD:          0	MERGED:          0	TO_CACHE:    5392569
L2C WQ	ACCESS:     151506	FORWARD:         17	MERGED:          0	TO_CACHE:     151506
L2C PQ	ACCESS:   11596253	FORWARD:          0	MERGED:    1681546	TO_CACHE:    9914705

L2C Instructions Evicting Data 0
L2C Translations Evicting Data 18266
L2C Data Evicting Data 11323820
L2C Instructions Evicting Instructions 0
L2C Translations Evicting Instructions 0
L2C Data Evicting Instructions 0
L2C Instructions Evicting Translations 0
L2C Translations Evicting Translations 55
L2C Data Evicting Translations 18262
L2C Dense regions hint from L2: 0
PSCL5 TOTAL     ACCESS:      56569  HIT:      56569  MISS:          0  HIT %:        100  MISS %:          0   MPKI: 0
PSCL5 LOAD TRANSLATION ACCESS:      56569  HIT:      56569  MISS:          0  HIT %:        100  MISS %:          0   MPKI: 0
PSCL5 PREFETCH  REQUESTED:          0  ISSUED:          0  USEFUL:          0  USELESS:          0
PSCL5 USEFUL LOAD PREFETCHES:          0 PREFETCH ISSUED TO LOWER LEVEL:          0  ACCURACY: -nan
PSCL5 TIMELY PREFETCHES:          0 LATE PREFETCHES: 0 DROPPED PREFETCHES: 0
PSCL5 PREFETCHES SAME FILL-ORIGIN LEVEL: 0 DIFFERENT FILL-ORIGIN LEVEL: 0

PSCL4 TOTAL     ACCESS:      56569  HIT:      56569  MISS:          0  HIT %:        100  MISS %:          0   MPKI: 0
PSCL4 LOAD TRANSLATION ACCESS:      56569  HIT:      56569  MISS:          0  HIT %:        100  MISS %:          0   MPKI: 0
PSCL4 PREFETCH  REQUESTED:          0  ISSUED:          0  USEFUL:          0  USELESS:          0
PSCL4 USEFUL LOAD PREFETCHES:          0 PREFETCH ISSUED TO LOWER LEVEL:          0  ACCURACY: -nan
PSCL4 TIMELY PREFETCHES:          0 LATE PREFETCHES: 0 DROPPED PREFETCHES: 0
PSCL4 PREFETCHES SAME FILL-ORIGIN LEVEL: 0 DIFFERENT FILL-ORIGIN LEVEL: 0

PSCL3 TOTAL     ACCESS:      56569  HIT:      56569  MISS:          0  HIT %:        100  MISS %:          0   MPKI: 0
PSCL3 LOAD TRANSLATION ACCESS:      56569  HIT:      56569  MISS:          0  HIT %:        100  MISS %:          0   MPKI: 0
PSCL3 PREFETCH  REQUESTED:          0  ISSUED:          0  USEFUL:          0  USELESS:          0
PSCL3 USEFUL LOAD PREFETCHES:          0 PREFETCH ISSUED TO LOWER LEVEL:          0  ACCURACY: -nan
PSCL3 TIMELY PREFETCHES:          0 LATE PREFETCHES: 0 DROPPED PREFETCHES: 0
PSCL3 PREFETCHES SAME FILL-ORIGIN LEVEL: 0 DIFFERENT FILL-ORIGIN LEVEL: 0

PSCL2 TOTAL     ACCESS:      56569  HIT:      55902  MISS:        667  HIT %:    98.8209  MISS %:    1.17909   MPKI: 0.01334
PSCL2 LOAD TRANSLATION ACCESS:      56569  HIT:      55902  MISS:        667  HIT %:    98.8209  MISS %:    1.17909   MPKI: 0.01334
PSCL2 PREFETCH  REQUESTED:          0  ISSUED:          0  USEFUL:          0  USELESS:          0
PSCL2 USEFUL LOAD PREFETCHES:          0 PREFETCH ISSUED TO LOWER LEVEL:          0  ACCURACY: -nan
PSCL2 TIMELY PREFETCHES:          0 LATE PREFETCHES: 0 DROPPED PREFETCHES: 0
PSCL2 PREFETCHES SAME FILL-ORIGIN LEVEL: 0 DIFFERENT FILL-ORIGIN LEVEL: 0

LLC TOTAL     ACCESS:   11505276  HIT:    5941185  MISS:    5564091  HIT %:    51.6388  MISS %:    48.3612   MPKI: 111.282
LLC LOAD      ACCESS:    4521632  HIT:    2955566  MISS:    1566066  HIT %:     65.365  MISS %:     34.635   MPKI: 31.3213
LLC RFO       ACCESS:      15677  HIT:      13374  MISS:       2303  HIT %:    85.3097  MISS %:    14.6903   MPKI: 0.04606
LLC PREFETCH  ACCESS:    6804769  HIT:    2821402  MISS:    3983367  HIT %:    41.4621  MISS %:    58.5379   MPKI: 79.6673
LLC WRITEBACK ACCESS:     144877  HIT:     144802  MISS:         75  HIT %:    99.9482  MISS %:  0.0517681   MPKI: 0.0015
LLC LOAD TRANSLATION ACCESS:      18321  HIT:       6041  MISS:      12280  HIT %:    32.9731  MISS %:    67.0269   MPKI: 0.2456
LLC PREFETCH  REQUESTED:          0  ISSUED:          0  USEFUL:     128784  USELESS:    3854572
LLC USEFUL LOAD PREFETCHES:     128784 PREFETCH ISSUED TO LOWER LEVEL:    3983374  ACCURACY: 3.23304
LLC TIMELY PREFETCHES:     128784 LATE PREFETCHES: 0 DROPPED PREFETCHES: 0
LLC PREFETCHES SAME FILL-ORIGIN LEVEL: 0 DIFFERENT FILL-ORIGIN LEVEL: 0
LLC AVERAGE MISS LATENCY: 192.04 cycles
LLC RQ	ACCESS:    4555633	FORWARD:          0	MERGED:          0	TO_CACHE:    4555631
LLC WQ	ACCESS:     144877	FORWARD:          4	MERGED:          0	TO_CACHE:     144877
LLC PQ	ACCESS:    6804777	FORWARD:          0	MERGED:          0	TO_CACHE:    6804775

LLC Dense regions hint to LLC: 0

RAW hits: 130399
Loads Generated: 18004008
Loads sent to L1D: 17873609
Stores Generated: 1026019
Stores sent to L1D: 1026019
Major fault: 0 Minor fault: 52663
Allocated PAGES: 52663

stream: 
stream:times selected: 11449753
stream:pref_filled: 5529846
stream:pref_useful: 63997
stream:pref_late: 10851
stream:misses: 1318941
stream:misses_by_poll: 0

CS: 
CS:times selected: 3114755
CS:pref_filled: 1866109
CS:pref_useful: 1821903
CS:pref_late: 825760
CS:misses: 1270436
CS:misses_by_poll: 5594

CPLX: 
CPLX:times selected: 8263250
CPLX:pref_filled: 346832
CPLX:pref_useful: 33609
CPLX:pref_late: 4650
CPLX:misses: 4888861
CPLX:misses_by_poll: 453

NL_L1: 
NL:times selected: 10658
NL:pref_filled: 4523
NL:pref_useful: 161
NL:pref_late: 15
NL:misses: 6380
NL:misses_by_poll: 0

total selections: 22838416
total_filled: 6529365
total_useful: 1641868
total_late: 874188
total_polluted: 6047
total_misses_after_warmup: 6143788
conflicts: 23266
Degree Incremented Times: 54544
Degree Decremented Times: 122292

L1 IP Table Write Accesses: 10642602
L1 IP Table Read Accesses: 10619336
L1 RST Write Accesses: 9195833
L1 RST Read Accesses: 18391666
L1 CSPT Write Accesses: 9195833
L1 CSPT Read Accesses: 15899940
L1 RR Filter Tag Write Accesses: 8343766
L1 RR Filter Tag Read Accesses: 497059075
L1 IP Table Tag Write Accesses: 10706437
L1 IP Table Tag Read Accesses: 10706437
L1 RST Tag Write Accesses: 0
L1 RST Tag Read Accesses: 82900793
L1 RR Filter Write Accesses: 0
L1 RR Filter Read Accesses: 16808313
test: 5232551
L2 IP Table Read Accesses: 22763641
L2 IP Table Write Accesses: 17448801
L2 IP Table Tag Read Accesses: 11383842
L2 IP Table Tag Write Accesses: 11383842

DRAM Statistics
 CHANNEL 0
 RQ ROW_BUFFER_HIT:    1116762  ROW_BUFFER_MISS:    4447147
 DBUS_CONGESTED:        387
 WQ ROW_BUFFER_HIT:      14410  ROW_BUFFER_MISS:      47645  FULL:          0

 AVG_CONGESTED_CYCLE: 4
 All warmup complete: 2
Channel 0 Bank busy for read cycles: 0
Channel 0 Bank busy for write cycles: 0
Channel 0
Rank 0
0banks busy for read cycles: 65123047
0banks busy for write cycles: 20701
1banks busy for read cycles: 51447064
1banks busy for write cycles: 4782411
2banks busy for read cycles: 46861046
2banks busy for write cycles: 991550
3banks busy for read cycles: 36597678
3banks busy for write cycles: 364831
4banks busy for read cycles: 31288425
4banks busy for write cycles: 199828
5banks busy for read cycles: 24688383
5banks busy for write cycles: 134337
6banks busy for read cycles: 17309197
6banks busy for write cycles: 129440
7banks busy for read cycles: 10297497
7banks busy for write cycles: 206243
8banks busy for read cycles: 5450717
8banks busy for write cycles: 614245

CPU 0 Branch Prediction Accuracy: 96.3481% MPKI: 11.0798 Average ROB Occupancy at Mispredict: 46.4734
Branch types
NOT_BRANCH: 34829913 69.6598%
BRANCH_DIRECT_JUMP: 1888246 3.77649%
BRANCH_INDIRECT: 0 0%
BRANCH_CONDITIONAL: 12882825 25.7657%
BRANCH_DIRECT_CALL: 184334 0.368668%
BRANCH_INDIRECT_CALL: 15078 0.030156%
BRANCH_RETURN: 199412 0.398824%
BRANCH_OTHER: 0 0%

@sumon_overall_L1D   1641868    692569   4887494   6529365  16686892  16686954
@Sumon_Early_by_class_L1D     54613   1555367     31886         0
@Sumon_Late_by_class_L1D      8595    655244      4297         0

@Sumon_Early_by_cycle_L1D    399802    291527    591384    244893     72080     20186      4104      4740      4082      6747      2310        13
@Sumon_Late_by_cycle_L1D    303479    327852     60090      1109        29        13         0         0         0         0         0         0
@Sumon_Early_stream_L1D     11053     11479      7770      1586       581      2122      3562      4450      3450      6314      2234        12
@Sumon_Early_CS_L1D    385805    276086    575051    236618     67146     14110        72        11       247       189        32         0
@Sumon_Early_CPLX_L1D      2943      3962      8563      6689      4352      3954       470       279       385       244        44         1
@Sumon_Late_stream_L1D      5374      2909       302         8         2         0         0         0         0         0         0         0
@Sumon_Late_CS_L1D    271397    323039     59672      1097        27        12         0         0         0         0         0         0
@Sumon_Late_CPLX_L1D      2272      1904       116         4         0         1         0         0         0         0         0         0
@sumon_overall_L2C    238225     30765   6535918   6774006   4374312   4374312
@Sumon_Early_by_class_L2C    115475    114813      7346         0
@Sumon_Late_by_class_L2C         0     29306         0         0

@Sumon_Early_by_cycle_L2C     17756     36893     44722     10741      1781       815        56       619      5386     27361     33384     58711
@Sumon_Late_by_cycle_L2C     18998     10092      1632        40         2         1         0         0         0         0         0         0
@Sumon_Early_stream_L2C         0         0         0         1         1        13        30       563      4924     24911     30303     54729
@Sumon_Early_CS_L2C     17555     36883     44722     10740      1778       603        15        17        40       613      1088       759
@Sumon_Early_CPLX_L2C         0         0         0         0         0         4         8        34       372      1728      1985      3215
@Sumon_Late_stream_L2C         0         0         0         0         0         0         0         0         0         0         0         0
@Sumon_Late_CS_L2C     17572     10059      1632        40         2         1         0         0         0         0         0         0
@Sumon_Late_CPLX_L2C         0         0         0         0         0         0         0         0         0         0         0         0
DRAM PAGES: 1048576
Allocated PAGES: 52663
