
*** ChampSim Multicore Out-of-Order Simulator ***

Warmup Instructions: 10000000
Simulation Instructions: 50000000
Number of CPUs: 1
LLC sets: 2048
LLC ways: 16
Off-chip DRAM Size: 4096 MB Channels: 1 Width: 64-bit Data Rate: 6400 MT/s
CPU 0 runs traces/SPEC2017/628.pop2_s-17B.champsimtrace.xz
.xz
CPU 0 Bimodal branch predictor
BTB has LRU replacement policy
ITLB has LRU replacement policy
DTLB has LRU replacement policy
STLB has LRU replacement policy
L1I has LRU replacement policy
IP Table Entries: 256
Initialize SRRIP state for L1D
IP_Table L2 entries: 256
L2C has LRU replacement policy
LLC has LRU replacement policy
Heartbeat CPU 0 instructions: 10000003 cycles: 2997525 heartbeat IPC: 3.33609 cumulative IPC: 3.33609 (Simulation time: 0 hr 17 min 49 sec) 

Warmup complete CPU 0 instructions: 10000003 cycles: 2997525 (Simulation time: 0 hr 17 min 49 sec) 

Heartbeat CPU 0 instructions: 20000001 cycles: 15778325 heartbeat IPC: 0.782423 cumulative IPC: 0.782423 (Simulation time: 0 hr 34 min 18 sec) 
Heartbeat CPU 0 instructions: 30000003 cycles: 28554017 heartbeat IPC: 0.782737 cumulative IPC: 0.78258 (Simulation time: 0 hr 50 min 47 sec) 
Heartbeat CPU 0 instructions: 40000001 cycles: 41350392 heartbeat IPC: 0.781471 cumulative IPC: 0.78221 (Simulation time: 1 hr 7 min 10 sec) 
Heartbeat CPU 0 instructions: 50000000 cycles: 53966212 heartbeat IPC: 0.792655 cumulative IPC: 0.784796 (Simulation time: 1 hr 23 min 24 sec) 
Heartbeat CPU 0 instructions: 60000000 cycles: 66505782 heartbeat IPC: 0.797476 cumulative IPC: 0.787299 (Simulation time: 1 hr 39 min 27 sec) 
Finished CPU 0 instructions: 50000003 cycles: 63508266 cumulative IPC: 0.787299 (Simulation time: 1 hr 39 min 27 sec) 

ChampSim completed all CPUs

Region of Interest Statistics

CPU 0 cumulative IPC: 0.787299 instructions: 50000003 cycles: 63508266
ITLB TOTAL     ACCESS:    7895884  HIT:    7893405  MISS:       2479  HIT %:    99.9686  MISS %:  0.0313961   MPKI: 0.04958
ITLB LOAD TRANSLATION ACCESS:    7895884  HIT:    7893405  MISS:       2479  HIT %:    99.9686  MISS %:  0.0313961   MPKI: 0.04958
ITLB PREFETCH  REQUESTED:          0  ISSUED:          0  USEFUL:          0  USELESS:          0
ITLB USEFUL LOAD PREFETCHES:          0 PREFETCH ISSUED TO LOWER LEVEL:          0  ACCURACY: -nan
ITLB TIMELY PREFETCHES:          0 LATE PREFETCHES: 0 DROPPED PREFETCHES: 0
ITLB PREFETCHES SAME FILL-ORIGIN LEVEL: 0 DIFFERENT FILL-ORIGIN LEVEL: 0
ITLB AVERAGE MISS LATENCY: 9.0004 cycles
ITLB RQ	ACCESS:    9354819	FORWARD:          0	MERGED:    1458220	TO_CACHE:    7896599

DTLB TOTAL     ACCESS:   11123667  HIT:   11082011  MISS:      41656  HIT %:    99.6255  MISS %:   0.374481   MPKI: 0.83312
DTLB LOAD TRANSLATION ACCESS:   11123667  HIT:   11082011  MISS:      41656  HIT %:    99.6255  MISS %:   0.374481   MPKI: 0.83312
DTLB PREFETCH  REQUESTED:          0  ISSUED:          0  USEFUL:          0  USELESS:          0
DTLB USEFUL LOAD PREFETCHES:          0 PREFETCH ISSUED TO LOWER LEVEL:          0  ACCURACY: -nan
DTLB TIMELY PREFETCHES:          0 LATE PREFETCHES: 0 DROPPED PREFETCHES: 0
DTLB PREFETCHES SAME FILL-ORIGIN LEVEL: 0 DIFFERENT FILL-ORIGIN LEVEL: 0
DTLB AVERAGE MISS LATENCY: 21.6048 cycles
DTLB RQ	ACCESS:   12328305	FORWARD:          0	MERGED:    1198738	TO_CACHE:   11129567

STLB TOTAL     ACCESS:    1550121  HIT:    1547658  MISS:       2463  HIT %:    99.8411  MISS %:   0.158891   MPKI: 0.04926
STLB LOAD TRANSLATION ACCESS:      44135  HIT:      41672  MISS:       2463  HIT %:    94.4194  MISS %:     5.5806   MPKI: 0.04926
STLB TRANSLATION FROM L1D PREFETCHER ACCESS:    1505986  HIT:    1505986  MISS:          0  HIT %:        100  MISS %:          0   MPKI: 0
STLB PREFETCH  REQUESTED:          0  ISSUED:          0  USEFUL:          0  USELESS:          0
STLB USEFUL LOAD PREFETCHES:          0 PREFETCH ISSUED TO LOWER LEVEL:          0  ACCURACY: -nan
STLB TIMELY PREFETCHES:          0 LATE PREFETCHES: 0 DROPPED PREFETCHES: 0
STLB PREFETCHES SAME FILL-ORIGIN LEVEL: 0 DIFFERENT FILL-ORIGIN LEVEL: 0
STLB AVERAGE MISS LATENCY: 210.403 cycles
STLB RQ	ACCESS:    5082979	FORWARD:          0	MERGED:    3532858	TO_CACHE:    1550121

STLB Hit, L1D data hit: 0
STLB Hit, L2C data hit: 0
STLB Hit, LLC data hit: 0
STLB Hit, LLC data miss: 0
STLB STLB hints to L2: 0
L1D TOTAL     ACCESS:   16825772  HIT:   15507054  MISS:    1318718  HIT %:    92.1625  MISS %:    7.83749   MPKI: 26.3744
L1D LOAD      ACCESS:    8534358  HIT:    8413607  MISS:     120751  HIT %:    98.5851  MISS %:    1.41488   MPKI: 2.41502
L1D RFO       ACCESS:    3262150  HIT:    2978417  MISS:     283733  HIT %:    91.3023  MISS %:    8.69773   MPKI: 5.67466
L1D PREFETCH  ACCESS:    5029264  HIT:    4115030  MISS:     914234  HIT %:    81.8217  MISS %:    18.1783   MPKI: 18.2847
L1D PREFETCH  REQUESTED:   10642548  ISSUED:   10077752  USEFUL:     670826  USELESS:     243430
L1D USEFUL LOAD PREFETCHES:     670826 PREFETCH ISSUED TO LOWER LEVEL:     932601  ACCURACY: 71.9307
L1D TIMELY PREFETCHES:     670826 LATE PREFETCHES: 3952 DROPPED PREFETCHES: 0
L1D PREFETCHES SAME FILL-ORIGIN LEVEL: 932601 DIFFERENT FILL-ORIGIN LEVEL: 0
L1D AVERAGE MISS LATENCY: 108445 cycles
L1D RQ	ACCESS:   11101344	FORWARD:          0	MERGED:    2481705	TO_CACHE:    8556194
L1D WQ	ACCESS:    3798884	FORWARD:      63489	MERGED:      26773	TO_CACHE:    3772111
L1D PQ	ACCESS:    5038908	FORWARD:          0	MERGED:         20	TO_CACHE:    5038844

L1D UNIQUE REGIONS ACCESSED: 0
L1D REGIONS CONFLICTS: 0
L1D Cross Page Prefetch Requests: 0
L1D Same Page Prefetch Requests: 5942497
L1D ROI Sum of L1D PQ occupancy: 73735750
L1D PREFETCHES PUSHED FROM L2C: 0
L1I TOTAL     ACCESS:    9332424  HIT:    9273256  MISS:      59168  HIT %:     99.366  MISS %:   0.634005   MPKI: 1.18336
L1I LOAD      ACCESS:    9332424  HIT:    9273256  MISS:      59168  HIT %:     99.366  MISS %:   0.634005   MPKI: 1.18336
L1I PREFETCH  REQUESTED:          0  ISSUED:          0  USEFUL:          0  USELESS:          0
L1I USEFUL LOAD PREFETCHES:          0 PREFETCH ISSUED TO LOWER LEVEL:          0  ACCURACY: -nan
L1I TIMELY PREFETCHES:          0 LATE PREFETCHES: 0 DROPPED PREFETCHES: 0
L1I PREFETCHES SAME FILL-ORIGIN LEVEL: 0 DIFFERENT FILL-ORIGIN LEVEL: 0
L1I AVERAGE MISS LATENCY: 43.973 cycles
L1I RQ	ACCESS:   14080050	FORWARD:          0	MERGED:    4725231	TO_CACHE:    9354819

BTB TOTAL     ACCESS:    5449076  HIT:    5427266  MISS:      21810  HIT %:    99.5997  MISS %:   0.400251   MPKI: 0.4362
BTB BRANCH_DIRECT_JUMP	ACCESS:     113010  HIT:     112818  MISS:        192
BTB BRANCH_INDIRECT	ACCESS:       3160  HIT:       2838  MISS:        322
BTB BRANCH_CONDITIONAL	ACCESS:    4936779  HIT:    4935358  MISS:       1421
BTB BRANCH_DIRECT_CALL	ACCESS:     198063  HIT:     197223  MISS:        840
BTB BRANCH_INDIRECT_CALL	ACCESS:          0  HIT:          0  MISS:          0
BTB BRANCH_RETURN	ACCESS:     198064  HIT:     179029  MISS:      19035
BTB BRANCH_OTHER ACCESS:          0  HIT:          0  MISS:          0

L2C TOTAL     ACCESS:    3534277  HIT:    2893468  MISS:     640809  HIT %:    81.8687  MISS %:    18.1313   MPKI: 12.8162
L2C LOAD      ACCESS:     175947  HIT:      80668  MISS:      95279  HIT %:    45.8479  MISS %:    54.1521   MPKI: 1.90558
L2C DATA LOAD MPKI: 0.74334
L2C INSTRUCTION LOAD MPKI: 1.16224
L2C RFO       ACCESS:     283691  HIT:     175511  MISS:     108180  HIT %:     61.867  MISS %:     38.133   MPKI: 2.1636
L2C PREFETCH  ACCESS:    2653383  HIT:    2218738  MISS:     434645  HIT %:    83.6192  MISS %:    16.3808   MPKI: 8.6929
L2C DATA PREFETCH MPKI: 8.6929
L2C INSTRUCTION PREFETCH MPKI: 0
L2C WRITEBACK ACCESS:     417927  HIT:     417812  MISS:        115  HIT %:    99.9725  MISS %:  0.0275168   MPKI: 0.0023
L2C LOAD TRANSLATION ACCESS:       3329  HIT:        739  MISS:       2590  HIT %:    22.1989  MISS %:    77.8011   MPKI: 0.0518
L2C PREFETCH  REQUESTED:    2382906  ISSUED:    2317763  USEFUL:      31857  USELESS:     403186
L2C USEFUL LOAD PREFETCHES:      31857 PREFETCH ISSUED TO LOWER LEVEL:     435415  ACCURACY: 7.31647
L2C TIMELY PREFETCHES:      31857 LATE PREFETCHES: 770 DROPPED PREFETCHES: 0
L2C PREFETCHES SAME FILL-ORIGIN LEVEL: 190288 DIFFERENT FILL-ORIGIN LEVEL: 0
L2C AVERAGE MISS LATENCY: 67.0307 cycles
L2C RQ	ACCESS:     463017	FORWARD:          0	MERGED:          0	TO_CACHE:     462967
L2C WQ	ACCESS:     417927	FORWARD:         89	MERGED:          0	TO_CACHE:     417927
L2C PQ	ACCESS:    3235961	FORWARD:          0	MERGED:     543803	TO_CACHE:    2692119

L2C Instructions Evicting Data 53865
L2C Translations Evicting Data 2400
L2C Data Evicting Data 523791
L2C Instructions Evicting Instructions 4001
L2C Translations Evicting Instructions 180
L2C Data Evicting Instructions 53869
L2C Instructions Evicting Translations 246
L2C Translations Evicting Translations 10
L2C Data Evicting Translations 2332
L2C Dense regions hint from L2: 0
PSCL5 TOTAL     ACCESS:       2463  HIT:       2463  MISS:          0  HIT %:        100  MISS %:          0   MPKI: 0
PSCL5 LOAD TRANSLATION ACCESS:       2463  HIT:       2463  MISS:          0  HIT %:        100  MISS %:          0   MPKI: 0
PSCL5 PREFETCH  REQUESTED:          0  ISSUED:          0  USEFUL:          0  USELESS:          0
PSCL5 USEFUL LOAD PREFETCHES:          0 PREFETCH ISSUED TO LOWER LEVEL:          0  ACCURACY: -nan
PSCL5 TIMELY PREFETCHES:          0 LATE PREFETCHES: 0 DROPPED PREFETCHES: 0
PSCL5 PREFETCHES SAME FILL-ORIGIN LEVEL: 0 DIFFERENT FILL-ORIGIN LEVEL: 0

PSCL4 TOTAL     ACCESS:       2463  HIT:       2463  MISS:          0  HIT %:        100  MISS %:          0   MPKI: 0
PSCL4 LOAD TRANSLATION ACCESS:       2463  HIT:       2463  MISS:          0  HIT %:        100  MISS %:          0   MPKI: 0
PSCL4 PREFETCH  REQUESTED:          0  ISSUED:          0  USEFUL:          0  USELESS:          0
PSCL4 USEFUL LOAD PREFETCHES:          0 PREFETCH ISSUED TO LOWER LEVEL:          0  ACCURACY: -nan
PSCL4 TIMELY PREFETCHES:          0 LATE PREFETCHES: 0 DROPPED PREFETCHES: 0
PSCL4 PREFETCHES SAME FILL-ORIGIN LEVEL: 0 DIFFERENT FILL-ORIGIN LEVEL: 0

PSCL3 TOTAL     ACCESS:       2463  HIT:       2463  MISS:          0  HIT %:        100  MISS %:          0   MPKI: 0
PSCL3 LOAD TRANSLATION ACCESS:       2463  HIT:       2463  MISS:          0  HIT %:        100  MISS %:          0   MPKI: 0
PSCL3 PREFETCH  REQUESTED:          0  ISSUED:          0  USEFUL:          0  USELESS:          0
PSCL3 USEFUL LOAD PREFETCHES:          0 PREFETCH ISSUED TO LOWER LEVEL:          0  ACCURACY: -nan
PSCL3 TIMELY PREFETCHES:          0 LATE PREFETCHES: 0 DROPPED PREFETCHES: 0
PSCL3 PREFETCHES SAME FILL-ORIGIN LEVEL: 0 DIFFERENT FILL-ORIGIN LEVEL: 0

PSCL2 TOTAL     ACCESS:       2463  HIT:       1591  MISS:        872  HIT %:     64.596  MISS %:     35.404   MPKI: 0.01744
PSCL2 LOAD TRANSLATION ACCESS:       2463  HIT:       1591  MISS:        872  HIT %:     64.596  MISS %:     35.404   MPKI: 0.01744
PSCL2 PREFETCH  REQUESTED:          0  ISSUED:          0  USEFUL:          0  USELESS:          0
PSCL2 USEFUL LOAD PREFETCHES:          0 PREFETCH ISSUED TO LOWER LEVEL:          0  ACCURACY: -nan
PSCL2 TIMELY PREFETCHES:          0 LATE PREFETCHES: 0 DROPPED PREFETCHES: 0
PSCL2 PREFETCHES SAME FILL-ORIGIN LEVEL: 0 DIFFERENT FILL-ORIGIN LEVEL: 0

LLC TOTAL     ACCESS:     829982  HIT:     669396  MISS:     160586  HIT %:    80.6519  MISS %:    19.3481   MPKI: 3.21172
LLC LOAD      ACCESS:      94537  HIT:      87746  MISS:       6791  HIT %:    92.8166  MISS %:    7.18343   MPKI: 0.13582
LLC RFO       ACCESS:     108151  HIT:      97154  MISS:      10997  HIT %:    89.8318  MISS %:    10.1682   MPKI: 0.21994
LLC PREFETCH  ACCESS:     435415  HIT:     294052  MISS:     141363  HIT %:    67.5337  MISS %:    32.4663   MPKI: 2.82726
LLC WRITEBACK ACCESS:     189289  HIT:     188226  MISS:       1063  HIT %:    99.4384  MISS %:   0.561575   MPKI: 0.02126
LLC LOAD TRANSLATION ACCESS:       2590  HIT:       2218  MISS:        372  HIT %:    85.6371  MISS %:    14.3629   MPKI: 0.00744
LLC PREFETCH  REQUESTED:          0  ISSUED:          0  USEFUL:       5523  USELESS:     137428
LLC USEFUL LOAD PREFETCHES:       5523 PREFETCH ISSUED TO LOWER LEVEL:     141363  ACCURACY: 3.90696
LLC TIMELY PREFETCHES:       5523 LATE PREFETCHES: 0 DROPPED PREFETCHES: 0
LLC PREFETCHES SAME FILL-ORIGIN LEVEL: 0 DIFFERENT FILL-ORIGIN LEVEL: 0
LLC AVERAGE MISS LATENCY: 147.115 cycles
LLC RQ	ACCESS:     205279	FORWARD:          0	MERGED:          0	TO_CACHE:     205278
LLC WQ	ACCESS:     189289	FORWARD:          1	MERGED:          0	TO_CACHE:     189289
LLC PQ	ACCESS:     435415	FORWARD:          0	MERGED:          0	TO_CACHE:     435415

LLC Dense regions hint to LLC: 0

RAW hits: 197743
Loads Generated: 11299087
Loads sent to L1D: 11101344
Stores Generated: 3798884
Stores sent to L1D: 3798884
Major fault: 0 Minor fault: 3592
Allocated PAGES: 3592

stream: 
stream:times selected: 2198419
stream:pref_filled: 1061100
stream:pref_useful: 790363
stream:pref_late: 3377
stream:misses: 2976
stream:misses_by_poll: 0

CS: 
CS:times selected: 1943930
CS:pref_filled: 15978
CS:pref_useful: 8937
CS:pref_late: 196
CS:misses: 46054
CS:misses_by_poll: 55

CPLX: 
CPLX:times selected: 254053
CPLX:pref_filled: 7973
CPLX:pref_useful: 2942
CPLX:pref_late: 36
CPLX:misses: 27268
CPLX:misses_by_poll: 6

NL_L1: 
NL:times selected: 305
NL:pref_filled: 58
NL:pref_useful: 36
NL:pref_late: 3
NL:misses: 83
NL:misses_by_poll: 0

total selections: 4396707
total_filled: 914234
total_useful: 670826
total_late: 4409
total_polluted: 61
total_misses_after_warmup: 142586
conflicts: 127905
Degree Incremented Times: 95066
Degree Decremented Times: 73102

L1 IP Table Write Accesses: 8389302
L1 IP Table Read Accesses: 8261397
L1 RST Write Accesses: 1833863
L1 RST Read Accesses: 3667726
L1 CSPT Write Accesses: 1833863
L1 CSPT Read Accesses: 2047119
L1 RR Filter Tag Write Accesses: 5603704
L1 RR Filter Tag Read Accesses: 413316620
L1 IP Table Tag Write Accesses: 8556193
L1 IP Table Tag Read Accesses: 8556193
L1 RST Tag Write Accesses: 0
L1 RST Tag Read Accesses: 17222201
L1 RR Filter Write Accesses: 0
L1 RR Filter Read Accesses: 15214493
test: 98352
L2 IP Table Read Accesses: 1839488
L2 IP Table Write Accesses: 1805918
L2 IP Table Tag Read Accesses: 950137
L2 IP Table Tag Write Accesses: 950137

DRAM Statistics
 CHANNEL 0
 RQ ROW_BUFFER_HIT:      69440  ROW_BUFFER_MISS:      90083
 DBUS_CONGESTED:        789
 WQ ROW_BUFFER_HIT:      13067  ROW_BUFFER_MISS:      32305  FULL:          0

 AVG_CONGESTED_CYCLE: 5
 All warmup complete: 2
Channel 0 Bank busy for read cycles: 0
Channel 0 Bank busy for write cycles: 0
Channel 0
Rank 0
0banks busy for read cycles: 51975140
0banks busy for write cycles: 7197
1banks busy for read cycles: 4913291
1banks busy for write cycles: 945967
2banks busy for read cycles: 1926048
2banks busy for write cycles: 473426
3banks busy for read cycles: 601506
3banks busy for write cycles: 322071
4banks busy for read cycles: 301561
4banks busy for write cycles: 257811
5banks busy for read cycles: 186938
5banks busy for write cycles: 207429
6banks busy for read cycles: 170616
6banks busy for write cycles: 189475
7banks busy for read cycles: 235866
7banks busy for write cycles: 201590
8banks busy for read cycles: 203783
8banks busy for write cycles: 388552

CPU 0 Branch Prediction Accuracy: 96.8434% MPKI: 3.61642 Average ROB Occupancy at Mispredict: 24.3755
Branch types
NOT_BRANCH: 44271658 88.5433%
BRANCH_DIRECT_JUMP: 113010 0.22602%
BRANCH_INDIRECT: 3160 0.00632%
BRANCH_CONDITIONAL: 5216078 10.4322%
BRANCH_DIRECT_CALL: 198063 0.396126%
BRANCH_INDIRECT_CALL: 0 0%
BRANCH_RETURN: 198064 0.396128%
BRANCH_OTHER: 0 0%

@sumon_overall_L1D    670826      3952    243430    914234  10077752  10642548
@Sumon_Early_by_class_L1D    655807      7849      2593         3
@Sumon_Late_by_class_L1D      2997       147        26         3

@Sumon_Early_by_cycle_L1D     23553    106350    141505     52831     55340    253739     29604      1514      3482      2098       488       322
@Sumon_Late_by_cycle_L1D      3107       829        15         0         1         0         0         0         0         0         0         0
@Sumon_Early_stream_L1D     20945    102375    139206     51742     54702    251356     28327      1165      3169      2047       451       322
@Sumon_Early_CS_L1D      1066      2037       870       728       546      1263       834       286       214         5         0         0
@Sumon_Early_CPLX_L1D       234       136       401        32        87      1079       442        60        80        27        15         0
@Sumon_Late_stream_L1D      2241       743        12         0         1         0         0         0         0         0         0         0
@Sumon_Late_CS_L1D       125        22         0         0         0         0         0         0         0         0         0         0
@Sumon_Late_CPLX_L1D        22         4         0         0         0         0         0         0         0         0         0         0
@sumon_overall_L2C     31857       770    403186    434645   2317763   2382906
@Sumon_Early_by_class_L2C     24262       726        83         0
@Sumon_Late_by_class_L2C        51         0         0         0

@Sumon_Early_by_cycle_L2C      2064      1609      1453       852       353      1041       353       208      1142      1197      4009     17576
@Sumon_Late_by_cycle_L2C       717        51         1         1         0         0         0         0         0         0         0         0
@Sumon_Early_stream_L2C       208       374       265       181       115       796       285       143      1038      1075      3557     16225
@Sumon_Early_CS_L2C         0         0         0         1         0         0         0        26        39         6        40       614
@Sumon_Early_CPLX_L2C         0         0         0         0         0         0         1         2         5         4        27        44
@Sumon_Late_stream_L2C        44         6         0         1         0         0         0         0         0         0         0         0
@Sumon_Late_CS_L2C         0         0         0         0         0         0         0         0         0         0         0         0
@Sumon_Late_CPLX_L2C         0         0         0         0         0         0         0         0         0         0         0         0
DRAM PAGES: 1048576
Allocated PAGES: 3592
