
*** ChampSim Multicore Out-of-Order Simulator ***

Warmup Instructions: 10000000
Simulation Instructions: 50000000
Number of CPUs: 1
LLC sets: 2048
LLC ways: 16
Off-chip DRAM Size: 4096 MB Channels: 1 Width: 64-bit Data Rate: 6400 MT/s
CPU 0 runs traces/SPEC2017/649.fotonik3d_s-1176B.champsimtrace.xz
.xz
CPU 0 Bimodal branch predictor
BTB has LRU replacement policy
ITLB has LRU replacement policy
DTLB has LRU replacement policy
STLB has LRU replacement policy
L1I has LRU replacement policy
IP Table Entries: 256
Initialize SRRIP state for L1D
IP_Table L2 entries: 256
L2C has LRU replacement policy
LLC has LRU replacement policy
Heartbeat CPU 0 instructions: 10000000 cycles: 2902861 heartbeat IPC: 3.44488 cumulative IPC: 3.44488 (Simulation time: 0 hr 22 min 55 sec) 

Warmup complete CPU 0 instructions: 10000004 cycles: 2902862 (Simulation time: 0 hr 22 min 55 sec) 

Heartbeat CPU 0 instructions: 20000002 cycles: 12882860 heartbeat IPC: 1.002 cumulative IPC: 1.002 (Simulation time: 0 hr 39 min 0 sec) 
Heartbeat CPU 0 instructions: 30000001 cycles: 22864531 heartbeat IPC: 1.00184 cumulative IPC: 1.00192 (Simulation time: 0 hr 55 min 16 sec) 
Heartbeat CPU 0 instructions: 40000000 cycles: 32843928 heartbeat IPC: 1.00206 cumulative IPC: 1.00197 (Simulation time: 1 hr 11 min 26 sec) 
Heartbeat CPU 0 instructions: 50000002 cycles: 42826649 heartbeat IPC: 1.00173 cumulative IPC: 1.00191 (Simulation time: 1 hr 27 min 37 sec) 
Heartbeat CPU 0 instructions: 60000003 cycles: 52805904 heartbeat IPC: 1.00208 cumulative IPC: 1.00194 (Simulation time: 1 hr 43 min 29 sec) 
Finished CPU 0 instructions: 50000003 cycles: 49903043 cumulative IPC: 1.00194 (Simulation time: 1 hr 43 min 29 sec) 

ChampSim completed all CPUs

Region of Interest Statistics

CPU 0 cumulative IPC: 1.00194 instructions: 50000003 cycles: 49903043
ITLB TOTAL     ACCESS:    7017701  HIT:    7017701  MISS:          0  HIT %:        100  MISS %:          0   MPKI: 0
ITLB LOAD TRANSLATION ACCESS:    7017701  HIT:    7017701  MISS:          0  HIT %:        100  MISS %:          0   MPKI: 0
ITLB PREFETCH  REQUESTED:          0  ISSUED:          0  USEFUL:          0  USELESS:          0
ITLB USEFUL LOAD PREFETCHES:          0 PREFETCH ISSUED TO LOWER LEVEL:          0  ACCURACY: -nan
ITLB TIMELY PREFETCHES:          0 LATE PREFETCHES: 0 DROPPED PREFETCHES: 0
ITLB PREFETCHES SAME FILL-ORIGIN LEVEL: 0 DIFFERENT FILL-ORIGIN LEVEL: 0
ITLB AVERAGE MISS LATENCY: -nan cycles
ITLB RQ	ACCESS:    8772749	FORWARD:          0	MERGED:    1755048	TO_CACHE:    7017701

DTLB TOTAL     ACCESS:    8127724  HIT:    8116047  MISS:      11677  HIT %:    99.8563  MISS %:   0.143669   MPKI: 0.23354
DTLB LOAD TRANSLATION ACCESS:    8127724  HIT:    8116047  MISS:      11677  HIT %:    99.8563  MISS %:   0.143669   MPKI: 0.23354
DTLB PREFETCH  REQUESTED:          0  ISSUED:          0  USEFUL:          0  USELESS:          0
DTLB USEFUL LOAD PREFETCHES:          0 PREFETCH ISSUED TO LOWER LEVEL:          0  ACCURACY: -nan
DTLB TIMELY PREFETCHES:          0 LATE PREFETCHES: 0 DROPPED PREFETCHES: 0
DTLB PREFETCHES SAME FILL-ORIGIN LEVEL: 0 DIFFERENT FILL-ORIGIN LEVEL: 0
DTLB AVERAGE MISS LATENCY: 89.4481 cycles
DTLB RQ	ACCESS:   12578626	FORWARD:          0	MERGED:    4450106	TO_CACHE:    8128520

STLB TOTAL     ACCESS:     609108  HIT:     602245  MISS:       6863  HIT %:    98.8733  MISS %:    1.12673   MPKI: 0.13726
STLB LOAD TRANSLATION ACCESS:      11677  HIT:       4814  MISS:       6863  HIT %:    41.2263  MISS %:    58.7737   MPKI: 0.13726
STLB TRANSLATION FROM L1D PREFETCHER ACCESS:     597431  HIT:     597431  MISS:          0  HIT %:        100  MISS %:          0   MPKI: 0
STLB PREFETCH  REQUESTED:          0  ISSUED:          0  USEFUL:          0  USELESS:          0
STLB USEFUL LOAD PREFETCHES:          0 PREFETCH ISSUED TO LOWER LEVEL:          0  ACCURACY: -nan
STLB TIMELY PREFETCHES:          0 LATE PREFETCHES: 0 DROPPED PREFETCHES: 0
STLB PREFETCHES SAME FILL-ORIGIN LEVEL: 0 DIFFERENT FILL-ORIGIN LEVEL: 0
STLB AVERAGE MISS LATENCY: 136.688 cycles
STLB RQ	ACCESS:     671643	FORWARD:          0	MERGED:      62535	TO_CACHE:     609108

STLB Hit, L1D data hit: 0
STLB Hit, L2C data hit: 0
STLB Hit, LLC data hit: 0
STLB Hit, LLC data miss: 0
STLB STLB hints to L2: 0
L1D TOTAL     ACCESS:   13216565  HIT:   12551226  MISS:     665339  HIT %:    94.9659  MISS %:    5.03413   MPKI: 13.3068
L1D LOAD      ACCESS:    9052913  HIT:    9031258  MISS:      21655  HIT %:    99.7608  MISS %:   0.239205   MPKI: 0.4331
L1D RFO       ACCESS:    3508880  HIT:    3508117  MISS:        763  HIT %:    99.9783  MISS %:  0.0217448   MPKI: 0.01526
L1D PREFETCH  ACCESS:     654772  HIT:      11851  MISS:     642921  HIT %:    1.80994  MISS %:    98.1901   MPKI: 12.8584
L1D PREFETCH  REQUESTED:    1319932  ISSUED:    1319932  USEFUL:     639265  USELESS:       3658
L1D USEFUL LOAD PREFETCHES:     639265 PREFETCH ISSUED TO LOWER LEVEL:     647443  ACCURACY: 98.7369
L1D TIMELY PREFETCHES:     639265 LATE PREFETCHES: 4046 DROPPED PREFETCHES: 0
L1D PREFETCHES SAME FILL-ORIGIN LEVEL: 647443 DIFFERENT FILL-ORIGIN LEVEL: 0
L1D AVERAGE MISS LATENCY: 169491 cycles
L1D RQ	ACCESS:   17541474	FORWARD:          0	MERGED:    8473006	TO_CACHE:    9068360
L1D WQ	ACCESS:    3510266	FORWARD:        108	MERGED:          0	TO_CACHE:    3510266
L1D PQ	ACCESS:     659966	FORWARD:          0	MERGED:          0	TO_CACHE:     659966

L1D UNIQUE REGIONS ACCESSED: 0
L1D REGIONS CONFLICTS: 0
L1D Cross Page Prefetch Requests: 0
L1D Same Page Prefetch Requests: 791016
L1D ROI Sum of L1D PQ occupancy: 8672926
L1D PREFETCHES PUSHED FROM L2C: 0
L1I TOTAL     ACCESS:    8772747  HIT:    8772747  MISS:          0  HIT %:        100  MISS %:          0   MPKI: 0
L1I LOAD      ACCESS:    8772747  HIT:    8772747  MISS:          0  HIT %:        100  MISS %:          0   MPKI: 0
L1I PREFETCH  REQUESTED:          0  ISSUED:          0  USEFUL:          0  USELESS:          0
L1I USEFUL LOAD PREFETCHES:          0 PREFETCH ISSUED TO LOWER LEVEL:          0  ACCURACY: -nan
L1I TIMELY PREFETCHES:          0 LATE PREFETCHES: 0 DROPPED PREFETCHES: 0
L1I PREFETCHES SAME FILL-ORIGIN LEVEL: 0 DIFFERENT FILL-ORIGIN LEVEL: 0
L1I AVERAGE MISS LATENCY: -nan cycles
L1I RQ	ACCESS:   11406825	FORWARD:          0	MERGED:    2634076	TO_CACHE:    8772749

BTB TOTAL     ACCESS:     877289  HIT:     877280  MISS:          9  HIT %:     99.999  MISS %: 0.00102589   MPKI: 0.00018
BTB BRANCH_DIRECT_JUMP	ACCESS:        218  HIT:        216  MISS:          2
BTB BRANCH_INDIRECT	ACCESS:          0  HIT:          0  MISS:          0
BTB BRANCH_CONDITIONAL	ACCESS:     876635  HIT:     876632  MISS:          3
BTB BRANCH_DIRECT_CALL	ACCESS:        218  HIT:        216  MISS:          2
BTB BRANCH_INDIRECT_CALL	ACCESS:          0  HIT:          0  MISS:          0
BTB BRANCH_RETURN	ACCESS:        218  HIT:        216  MISS:          2
BTB BRANCH_OTHER ACCESS:          0  HIT:          0  MISS:          0

L2C TOTAL     ACCESS:    3965065  HIT:    3524680  MISS:     440385  HIT %:    88.8934  MISS %:    11.1066   MPKI: 8.8077
L2C LOAD      ACCESS:      17609  HIT:      10089  MISS:       7520  HIT %:    57.2946  MISS %:    42.7054   MPKI: 0.1504
L2C DATA LOAD MPKI: 0.1504
L2C INSTRUCTION LOAD MPKI: 0
L2C RFO       ACCESS:        763  HIT:        761  MISS:          2  HIT %:    99.7379  MISS %:   0.262123   MPKI: 4e-05
L2C PREFETCH  ACCESS:    3500583  HIT:    3068604  MISS:     431979  HIT %:    87.6598  MISS %:    12.3402   MPKI: 8.63958
L2C DATA PREFETCH MPKI: 8.63958
L2C INSTRUCTION PREFETCH MPKI: 0
L2C WRITEBACK ACCESS:     439247  HIT:     439247  MISS:          0  HIT %:        100  MISS %:          0   MPKI: 0
L2C LOAD TRANSLATION ACCESS:       6863  HIT:       5979  MISS:        884  HIT %:    87.1193  MISS %:    12.8807   MPKI: 0.01768
L2C PREFETCH  REQUESTED:    3305294  ISSUED:    3305116  USEFUL:       2540  USELESS:     430072
L2C USEFUL LOAD PREFETCHES:       2540 PREFETCH ISSUED TO LOWER LEVEL:     431990  ACCURACY: 0.587977
L2C TIMELY PREFETCHES:       2540 LATE PREFETCHES: 10 DROPPED PREFETCHES: 0
L2C PREFETCHES SAME FILL-ORIGIN LEVEL: 383620 DIFFERENT FILL-ORIGIN LEVEL: 0
L2C AVERAGE MISS LATENCY: 193.665 cycles
L2C RQ	ACCESS:      25235	FORWARD:          0	MERGED:          0	TO_CACHE:      25235
L2C WQ	ACCESS:     439247	FORWARD:          0	MERGED:          0	TO_CACHE:     439247
L2C PQ	ACCESS:    3952084	FORWARD:          0	MERGED:      80607	TO_CACHE:    3871477

L2C Instructions Evicting Data 0
L2C Translations Evicting Data 884
L2C Data Evicting Data 438616
L2C Instructions Evicting Instructions 0
L2C Translations Evicting Instructions 0
L2C Data Evicting Instructions 0
L2C Instructions Evicting Translations 0
L2C Translations Evicting Translations 0
L2C Data Evicting Translations 885
L2C Dense regions hint from L2: 0
PSCL5 TOTAL     ACCESS:       6863  HIT:       6863  MISS:          0  HIT %:        100  MISS %:          0   MPKI: 0
PSCL5 LOAD TRANSLATION ACCESS:       6863  HIT:       6863  MISS:          0  HIT %:        100  MISS %:          0   MPKI: 0
PSCL5 PREFETCH  REQUESTED:          0  ISSUED:          0  USEFUL:          0  USELESS:          0
PSCL5 USEFUL LOAD PREFETCHES:          0 PREFETCH ISSUED TO LOWER LEVEL:          0  ACCURACY: -nan
PSCL5 TIMELY PREFETCHES:          0 LATE PREFETCHES: 0 DROPPED PREFETCHES: 0
PSCL5 PREFETCHES SAME FILL-ORIGIN LEVEL: 0 DIFFERENT FILL-ORIGIN LEVEL: 0

PSCL4 TOTAL     ACCESS:       6863  HIT:       6863  MISS:          0  HIT %:        100  MISS %:          0   MPKI: 0
PSCL4 LOAD TRANSLATION ACCESS:       6863  HIT:       6863  MISS:          0  HIT %:        100  MISS %:          0   MPKI: 0
PSCL4 PREFETCH  REQUESTED:          0  ISSUED:          0  USEFUL:          0  USELESS:          0
PSCL4 USEFUL LOAD PREFETCHES:          0 PREFETCH ISSUED TO LOWER LEVEL:          0  ACCURACY: -nan
PSCL4 TIMELY PREFETCHES:          0 LATE PREFETCHES: 0 DROPPED PREFETCHES: 0
PSCL4 PREFETCHES SAME FILL-ORIGIN LEVEL: 0 DIFFERENT FILL-ORIGIN LEVEL: 0

PSCL3 TOTAL     ACCESS:       6863  HIT:       6863  MISS:          0  HIT %:        100  MISS %:          0   MPKI: 0
PSCL3 LOAD TRANSLATION ACCESS:       6863  HIT:       6863  MISS:          0  HIT %:        100  MISS %:          0   MPKI: 0
PSCL3 PREFETCH  REQUESTED:          0  ISSUED:          0  USEFUL:          0  USELESS:          0
PSCL3 USEFUL LOAD PREFETCHES:          0 PREFETCH ISSUED TO LOWER LEVEL:          0  ACCURACY: -nan
PSCL3 TIMELY PREFETCHES:          0 LATE PREFETCHES: 0 DROPPED PREFETCHES: 0
PSCL3 PREFETCHES SAME FILL-ORIGIN LEVEL: 0 DIFFERENT FILL-ORIGIN LEVEL: 0

PSCL2 TOTAL     ACCESS:       6863  HIT:       6841  MISS:         22  HIT %:    99.6794  MISS %:    0.32056   MPKI: 0.00044
PSCL2 LOAD TRANSLATION ACCESS:       6863  HIT:       6841  MISS:         22  HIT %:    99.6794  MISS %:    0.32056   MPKI: 0.00044
PSCL2 PREFETCH  REQUESTED:          0  ISSUED:          0  USEFUL:          0  USELESS:          0
PSCL2 USEFUL LOAD PREFETCHES:          0 PREFETCH ISSUED TO LOWER LEVEL:          0  ACCURACY: -nan
PSCL2 TIMELY PREFETCHES:          0 LATE PREFETCHES: 0 DROPPED PREFETCHES: 0
PSCL2 PREFETCHES SAME FILL-ORIGIN LEVEL: 0 DIFFERENT FILL-ORIGIN LEVEL: 0

LLC TOTAL     ACCESS:     878667  HIT:     438664  MISS:     440003  HIT %:    49.9238  MISS %:    50.0762   MPKI: 8.80006
LLC LOAD      ACCESS:       7510  HIT:         13  MISS:       7497  HIT %:   0.173103  MISS %:    99.8269   MPKI: 0.14994
LLC RFO       ACCESS:          2  HIT:          2  MISS:          0  HIT %:        100  MISS %:          0   MPKI: 0
LLC PREFETCH  ACCESS:     431989  HIT:        369  MISS:     431620  HIT %:  0.0854188  MISS %:    99.9146   MPKI: 8.6324
LLC WRITEBACK ACCESS:     438282  HIT:     438280  MISS:          2  HIT %:    99.9995  MISS %: 0.000456327   MPKI: 4e-05
LLC LOAD TRANSLATION ACCESS:        884  HIT:          0  MISS:        884  HIT %:          0  MISS %:        100   MPKI: 0.01768
LLC PREFETCH  REQUESTED:          0  ISSUED:          0  USEFUL:          7  USELESS:     431646
LLC USEFUL LOAD PREFETCHES:          7 PREFETCH ISSUED TO LOWER LEVEL:     431621  ACCURACY: 0.00162179
LLC TIMELY PREFETCHES:          7 LATE PREFETCHES: 0 DROPPED PREFETCHES: 0
LLC PREFETCHES SAME FILL-ORIGIN LEVEL: 0 DIFFERENT FILL-ORIGIN LEVEL: 0
LLC AVERAGE MISS LATENCY: 163.798 cycles
LLC RQ	ACCESS:       8396	FORWARD:          0	MERGED:          0	TO_CACHE:       8396
LLC WQ	ACCESS:     438283	FORWARD:          0	MERGED:          0	TO_CACHE:     438283
LLC PQ	ACCESS:     431990	FORWARD:          0	MERGED:          0	TO_CACHE:     431990

LLC Dense regions hint to LLC: 0

RAW hits: 787
Loads Generated: 17542256
Loads sent to L1D: 17541474
Stores Generated: 3510266
Stores sent to L1D: 3510266
Major fault: 0 Minor fault: 8337
Allocated PAGES: 8337

stream: 
stream:times selected: 1871120
stream:pref_filled: 764142
stream:pref_useful: 759950
stream:pref_late: 4097
stream:misses: 75
stream:misses_by_poll: 0

CS: 
CS:times selected: 1720045
CS:pref_filled: 3270
CS:pref_useful: 3033
CS:pref_late: 1
CS:misses: 34641
CS:misses_by_poll: 18

CPLX: 
CPLX:times selected: 150983
CPLX:pref_filled: 5127
CPLX:pref_useful: 5033
CPLX:pref_late: 0
CPLX:misses: 2558
CPLX:misses_by_poll: 9

NL_L1: 
NL:times selected: 16
NL:pref_filled: 1
NL:pref_useful: 1
NL:pref_late: 0
NL:misses: 0
NL:misses_by_poll: 0

total selections: 3742164
total_filled: 642921
total_useful: 639265
total_late: 4107
total_polluted: 27
total_misses_after_warmup: 37105
conflicts: 485
Degree Incremented Times: 93836
Degree Decremented Times: 0

L1 IP Table Write Accesses: 9066558
L1 IP Table Read Accesses: 9066073
L1 RST Write Accesses: 1492664
L1 RST Read Accesses: 2985328
L1 CSPT Write Accesses: 1492664
L1 CSPT Read Accesses: 1766086
L1 RR Filter Tag Write Accesses: 659966
L1 RR Filter Tag Read Accesses: 336054517
L1 IP Table Tag Write Accesses: 9068363
L1 IP Table Tag Read Accesses: 9068363
L1 RST Tag Write Accesses: 0
L1 RST Tag Read Accesses: 13465722
L1 RR Filter Write Accesses: 0
L1 RR Filter Read Accesses: 12760362
test: 47606
L2 IP Table Read Accesses: 1182059
L2 IP Table Write Accesses: 1164984
L2 IP Table Tag Read Accesses: 591324
L2 IP Table Tag Write Accesses: 591324

DRAM Statistics
 CHANNEL 0
 RQ ROW_BUFFER_HIT:      55044  ROW_BUFFER_MISS:     384957
 DBUS_CONGESTED:        298
 WQ ROW_BUFFER_HIT:     317292  ROW_BUFFER_MISS:     120975  FULL:          0

 AVG_CONGESTED_CYCLE: 6
 All warmup complete: 2
Channel 0 Bank busy for read cycles: 0
Channel 0 Bank busy for write cycles: 0
Channel 0
Rank 0
0banks busy for read cycles: 6104247
0banks busy for write cycles: 7824
1banks busy for read cycles: 21155448
1banks busy for write cycles: 346373
2banks busy for read cycles: 11378507
2banks busy for write cycles: 165617
3banks busy for read cycles: 813695
3banks busy for write cycles: 183788
4banks busy for read cycles: 349002
4banks busy for write cycles: 300822
5banks busy for read cycles: 159555
5banks busy for write cycles: 334220
6banks busy for read cycles: 130782
6banks busy for write cycles: 297366
7banks busy for read cycles: 1181957
7banks busy for write cycles: 1098551
8banks busy for read cycles: 362021
8banks busy for write cycles: 5533269

CPU 0 Branch Prediction Accuracy: 99.9751% MPKI: 0.00438 Average ROB Occupancy at Mispredict: 49.0228
Branch types
NOT_BRANCH: 49121612 98.2432%
BRANCH_DIRECT_JUMP: 218 0.000436%
BRANCH_INDIRECT: 0 0%
BRANCH_CONDITIONAL: 877399 1.7548%
BRANCH_DIRECT_CALL: 218 0.000436%
BRANCH_INDIRECT_CALL: 0 0%
BRANCH_RETURN: 218 0.000436%
BRANCH_OTHER: 0 0%

@sumon_overall_L1D    639265      4046      3658    642921   1319932   1319932
@Sumon_Early_by_class_L1D    636706      1206      1330         0
@Sumon_Late_by_class_L1D      4036         1         0         0

@Sumon_Early_by_cycle_L1D      6161     21245     31824    375869      4249    199911         6         0         0         0         0         0
@Sumon_Late_by_cycle_L1D        17      4029         0         0         0         0         0         0         0         0         0         0
@Sumon_Early_stream_L1D      6140     20508     31506    375394      3680    199478         0         0         0         0         0         0
@Sumon_Early_CS_L1D         9       609       285       181        49        73         0         0         0         0         0         0
@Sumon_Early_CPLX_L1D         0       120        30       294       520       360         6         0         0         0         0         0
@Sumon_Late_stream_L1D        15      4021         0         0         0         0         0         0         0         0         0         0
@Sumon_Late_CS_L1D         1         0         0         0         0         0         0         0         0         0         0         0
@Sumon_Late_CPLX_L1D         0         0         0         0         0         0         0         0         0         0         0         0
@sumon_overall_L2C      2540        10    430072    431979   3305116   3305294
@Sumon_Early_by_class_L2C      2532         1         6         0
@Sumon_Late_by_class_L2C        10         0         0         0

@Sumon_Early_by_cycle_L2C        16        58       754        98        69       363         0         0         0         0         0      1182
@Sumon_Late_by_cycle_L2C         0        10         0         0         0         0         0         0         0         0         0         0
@Sumon_Early_stream_L2C        16        57       754        98        69       362         0         0         0         0         0      1176
@Sumon_Early_CS_L2C         0         1         0         0         0         0         0         0         0         0         0         0
@Sumon_Early_CPLX_L2C         0         0         0         0         0         1         0         0         0         0         0         5
@Sumon_Late_stream_L2C         0        10         0         0         0         0         0         0         0         0         0         0
@Sumon_Late_CS_L2C         0         0         0         0         0         0         0         0         0         0         0         0
@Sumon_Late_CPLX_L2C         0         0         0         0         0         0         0         0         0         0         0         0
DRAM PAGES: 1048576
Allocated PAGES: 8337
