
*** ChampSim Multicore Out-of-Order Simulator ***

Warmup Instructions: 10000000
Simulation Instructions: 50000000
Number of CPUs: 1
LLC sets: 2048
LLC ways: 16
Off-chip DRAM Size: 4096 MB Channels: 1 Width: 64-bit Data Rate: 200 MT/s
CPU 0 runs traces/graph/BC_74350M.champsim.gz
.gz
CPU 0 Bimodal branch predictor
BTB has LRU replacement policy
ITLB has LRU replacement policy
DTLB has LRU replacement policy
STLB has LRU replacement policy
L1I has LRU replacement policy
IP Table Entries: 256
L1D has LRU replacement policy
IP_Table L2 entries: 256
L2C has LRU replacement policy
LLC has LRU replacement policy
Heartbeat CPU 0 instructions: 10000002 cycles: 3214716 heartbeat IPC: 3.1107 cumulative IPC: 3.1107 (Simulation time: 0 hr 18 min 17 sec) 

Warmup complete CPU 0 instructions: 10000002 cycles: 3214716 (Simulation time: 0 hr 18 min 17 sec) 

Heartbeat CPU 0 instructions: 20000000 cycles: 163852341 heartbeat IPC: 0.0622519 cumulative IPC: 0.0622519 (Simulation time: 0 hr 48 min 18 sec) 
Heartbeat CPU 0 instructions: 30000003 cycles: 243559915 heartbeat IPC: 0.125459 cumulative IPC: 0.0832136 (Simulation time: 1 hr 14 min 56 sec) 
Heartbeat CPU 0 instructions: 40000001 cycles: 326814922 heartbeat IPC: 0.120113 cumulative IPC: 0.092707 (Simulation time: 1 hr 39 min 23 sec) 
Heartbeat CPU 0 instructions: 50000000 cycles: 411229957 heartbeat IPC: 0.118462 cumulative IPC: 0.0980356 (Simulation time: 1 hr 57 min 3 sec) 
Heartbeat CPU 0 instructions: 60000002 cycles: 494697567 heartbeat IPC: 0.119807 cumulative IPC: 0.101733 (Simulation time: 2 hr 7 min 50 sec) 
Finished CPU 0 instructions: 50000000 cycles: 491482851 cumulative IPC: 0.101733 (Simulation time: 2 hr 7 min 50 sec) 

ChampSim completed all CPUs

Region of Interest Statistics

CPU 0 cumulative IPC: 0.101733 instructions: 50000000 cycles: 491482851
ITLB TOTAL     ACCESS:   11366353  HIT:   11366348  MISS:          5  HIT %:        100  MISS %: 4.39895e-05   MPKI: 0.0001
ITLB LOAD TRANSLATION ACCESS:   11366353  HIT:   11366348  MISS:          5  HIT %:        100  MISS %: 4.39895e-05   MPKI: 0.0001
ITLB PREFETCH  REQUESTED:          0  ISSUED:          0  USEFUL:          0  USELESS:          0
ITLB USEFUL LOAD PREFETCHES:          0 PREFETCH ISSUED TO LOWER LEVEL:          0  ACCURACY: -nan
ITLB TIMELY PREFETCHES:          0 LATE PREFETCHES: 0 DROPPED PREFETCHES: 0
ITLB PREFETCHES SAME FILL-ORIGIN LEVEL: 0 DIFFERENT FILL-ORIGIN LEVEL: 0
ITLB AVERAGE MISS LATENCY: 375.4 cycles
ITLB RQ	ACCESS:   12706028	FORWARD:          0	MERGED:    1339676	TO_CACHE:   11366352

DTLB TOTAL     ACCESS:   11492100  HIT:   10923543  MISS:     568557  HIT %:    95.0526  MISS %:    4.94737   MPKI: 11.3711
DTLB LOAD TRANSLATION ACCESS:   11492100  HIT:   10923543  MISS:     568557  HIT %:    95.0526  MISS %:    4.94737   MPKI: 11.3711
DTLB PREFETCH  REQUESTED:          0  ISSUED:          0  USEFUL:          0  USELESS:          0
DTLB USEFUL LOAD PREFETCHES:          0 PREFETCH ISSUED TO LOWER LEVEL:          0  ACCURACY: -nan
DTLB TIMELY PREFETCHES:          0 LATE PREFETCHES: 0 DROPPED PREFETCHES: 0
DTLB PREFETCHES SAME FILL-ORIGIN LEVEL: 0 DIFFERENT FILL-ORIGIN LEVEL: 0
DTLB AVERAGE MISS LATENCY: 56.2277 cycles
DTLB RQ	ACCESS:   11582709	FORWARD:          0	MERGED:      84350	TO_CACHE:   11498359

STLB TOTAL     ACCESS:    2324164  HIT:    2070342  MISS:     253822  HIT %:     89.079  MISS %:     10.921   MPKI: 5.07644
STLB LOAD TRANSLATION ACCESS:     568560  HIT:     314738  MISS:     253822  HIT %:     55.357  MISS %:     44.643   MPKI: 5.07644
STLB TRANSLATION FROM L1D PREFETCHER ACCESS:    1755604  HIT:    1755604  MISS:          0  HIT %:        100  MISS %:          0   MPKI: 0
STLB PREFETCH  REQUESTED:          0  ISSUED:          0  USEFUL:          0  USELESS:          0
STLB USEFUL LOAD PREFETCHES:          0 PREFETCH ISSUED TO LOWER LEVEL:          0  ACCURACY: -nan
STLB TIMELY PREFETCHES:          0 LATE PREFETCHES: 0 DROPPED PREFETCHES: 0
STLB PREFETCHES SAME FILL-ORIGIN LEVEL: 0 DIFFERENT FILL-ORIGIN LEVEL: 0
STLB AVERAGE MISS LATENCY: 105.059 cycles
STLB RQ	ACCESS:    2692441	FORWARD:          0	MERGED:     368287	TO_CACHE:    2324154

STLB Hit, L1D data hit: 0
STLB Hit, L2C data hit: 0
STLB Hit, LLC data hit: 0
STLB Hit, LLC data miss: 0
STLB STLB hints to L2: 0
L1D TOTAL     ACCESS:   12023159  HIT:    9331528  MISS:    2691631  HIT %:    77.6129  MISS %:    22.3871   MPKI: 53.8326
L1D LOAD      ACCESS:    7655842  HIT:    6581224  MISS:    1074618  HIT %:    85.9634  MISS %:    14.0366   MPKI: 21.4924
L1D RFO       ACCESS:    2672266  HIT:    2590266  MISS:      82000  HIT %:    96.9314  MISS %:    3.06856   MPKI: 1.64
L1D PREFETCH  ACCESS:    1695051  HIT:     160038  MISS:    1535013  HIT %:    9.44149  MISS %:    90.5585   MPKI: 30.7003
L1D PREFETCH  REQUESTED:    4247774  ISSUED:    4247772  USEFUL:     899741  USELESS:     635502
L1D USEFUL LOAD PREFETCHES:     899741 PREFETCH ISSUED TO LOWER LEVEL:    1954929  ACCURACY: 46.0242
L1D TIMELY PREFETCHES:     899741 LATE PREFETCHES: 419917 DROPPED PREFETCHES: 0
L1D PREFETCHES SAME FILL-ORIGIN LEVEL: 1954929 DIFFERENT FILL-ORIGIN LEVEL: 0
L1D AVERAGE MISS LATENCY: 5.12531e+07 cycles
L1D RQ	ACCESS:   11443038	FORWARD:          0	MERGED:    3260043	TO_CACHE:    8182972
L1D WQ	ACCESS:    3399739	FORWARD:         23	MERGED:          2	TO_CACHE:    3399737
L1D PQ	ACCESS:    2123886	FORWARD:          0	MERGED:          0	TO_CACHE:    2123886

L1D UNIQUE REGIONS ACCESSED: 0
L1D REGIONS CONFLICTS: 0
L1D Cross Page Prefetch Requests: 0
L1D Same Page Prefetch Requests: 3102306
L1D ROI Sum of L1D PQ occupancy: 29527071
L1D PREFETCHES PUSHED FROM L2C: 0
L1I TOTAL     ACCESS:   12706022  HIT:   12705997  MISS:         25  HIT %:    99.9998  MISS %: 0.000196757   MPKI: 0.0005
L1I LOAD      ACCESS:   12706022  HIT:   12705997  MISS:         25  HIT %:    99.9998  MISS %: 0.000196757   MPKI: 0.0005
L1I PREFETCH  REQUESTED:          0  ISSUED:          0  USEFUL:          0  USELESS:          0
L1I USEFUL LOAD PREFETCHES:          0 PREFETCH ISSUED TO LOWER LEVEL:          0  ACCURACY: -nan
L1I TIMELY PREFETCHES:          0 LATE PREFETCHES: 0 DROPPED PREFETCHES: 0
L1I PREFETCHES SAME FILL-ORIGIN LEVEL: 0 DIFFERENT FILL-ORIGIN LEVEL: 0
L1I AVERAGE MISS LATENCY: 337.28 cycles
L1I RQ	ACCESS:   17953250	FORWARD:          0	MERGED:    5247222	TO_CACHE:   12706028

BTB TOTAL     ACCESS:   13026549  HIT:   13026520  MISS:         29  HIT %:    99.9998  MISS %: 0.000222622   MPKI: 0.00058
BTB BRANCH_DIRECT_JUMP	ACCESS:     195588  HIT:     195585  MISS:          3
BTB BRANCH_INDIRECT	ACCESS:          0  HIT:          0  MISS:          0
BTB BRANCH_CONDITIONAL	ACCESS:   12830955  HIT:   12830935  MISS:         20
BTB BRANCH_DIRECT_CALL	ACCESS:          3  HIT:          0  MISS:          3
BTB BRANCH_INDIRECT_CALL	ACCESS:          0  HIT:          0  MISS:          0
BTB BRANCH_RETURN	ACCESS:          3  HIT:          0  MISS:          3
BTB BRANCH_OTHER ACCESS:          0  HIT:          0  MISS:          0

L2C TOTAL     ACCESS:    4608107  HIT:    2047888  MISS:    2560219  HIT %:     44.441  MISS %:     55.559   MPKI: 51.2044
L2C LOAD      ACCESS:     654726  HIT:     129417  MISS:     525309  HIT %:    19.7666  MISS %:    80.2334   MPKI: 10.5062
L2C DATA LOAD MPKI: 10.5057
L2C INSTRUCTION LOAD MPKI: 0.0005
L2C RFO       ACCESS:      82000  HIT:          0  MISS:      82000  HIT %:          0  MISS %:        100   MPKI: 1.64
L2C PREFETCH  ACCESS:    2933222  HIT:    1031572  MISS:    1901650  HIT %:    35.1686  MISS %:    64.8314   MPKI: 38.033
L2C DATA PREFETCH MPKI: 38.033
L2C INSTRUCTION PREFETCH MPKI: 0
L2C WRITEBACK ACCESS:     662990  HIT:     662989  MISS:          1  HIT %:    99.9998  MISS %: 0.000150832   MPKI: 2e-05
L2C LOAD TRANSLATION ACCESS:     275169  HIT:     223910  MISS:      51259  HIT %:    81.3718  MISS %:    18.6282   MPKI: 1.02518
L2C PREFETCH  REQUESTED:    2069764  ISSUED:    2069764  USEFUL:      48457  USELESS:    1850369
L2C USEFUL LOAD PREFETCHES:      48457 PREFETCH ISSUED TO LOWER LEVEL:    1912572  ACCURACY: 2.5336
L2C TIMELY PREFETCHES:      48457 LATE PREFETCHES: 10920 DROPPED PREFETCHES: 0
L2C PREFETCHES SAME FILL-ORIGIN LEVEL: 1103953 DIFFERENT FILL-ORIGIN LEVEL: 0
L2C AVERAGE MISS LATENCY: 1275.29 cycles
L2C RQ	ACCESS:    1011893	FORWARD:          0	MERGED:          0	TO_CACHE:    1011893
L2C WQ	ACCESS:     662990	FORWARD:          0	MERGED:          0	TO_CACHE:     662990
L2C PQ	ACCESS:    4024693	FORWARD:          0	MERGED:     313104	TO_CACHE:    3711589

L2C Instructions Evicting Data 22
L2C Translations Evicting Data 49350
L2C Data Evicting Data 2459018
L2C Instructions Evicting Instructions 0
L2C Translations Evicting Instructions 0
L2C Data Evicting Instructions 25
L2C Instructions Evicting Translations 3
L2C Translations Evicting Translations 1909
L2C Data Evicting Translations 49891
L2C Dense regions hint from L2: 0
PSCL5 TOTAL     ACCESS:     253821  HIT:     253821  MISS:          0  HIT %:        100  MISS %:          0   MPKI: 0
PSCL5 LOAD TRANSLATION ACCESS:     253821  HIT:     253821  MISS:          0  HIT %:        100  MISS %:          0   MPKI: 0
PSCL5 PREFETCH  REQUESTED:          0  ISSUED:          0  USEFUL:          0  USELESS:          0
PSCL5 USEFUL LOAD PREFETCHES:          0 PREFETCH ISSUED TO LOWER LEVEL:          0  ACCURACY: -nan
PSCL5 TIMELY PREFETCHES:          0 LATE PREFETCHES: 0 DROPPED PREFETCHES: 0
PSCL5 PREFETCHES SAME FILL-ORIGIN LEVEL: 0 DIFFERENT FILL-ORIGIN LEVEL: 0

PSCL4 TOTAL     ACCESS:     253821  HIT:     253820  MISS:          1  HIT %:    99.9996  MISS %: 0.000393978   MPKI: 2e-05
PSCL4 LOAD TRANSLATION ACCESS:     253821  HIT:     253820  MISS:          1  HIT %:    99.9996  MISS %: 0.000393978   MPKI: 2e-05
PSCL4 PREFETCH  REQUESTED:          0  ISSUED:          0  USEFUL:          0  USELESS:          0
PSCL4 USEFUL LOAD PREFETCHES:          0 PREFETCH ISSUED TO LOWER LEVEL:          0  ACCURACY: -nan
PSCL4 TIMELY PREFETCHES:          0 LATE PREFETCHES: 0 DROPPED PREFETCHES: 0
PSCL4 PREFETCHES SAME FILL-ORIGIN LEVEL: 0 DIFFERENT FILL-ORIGIN LEVEL: 0

PSCL3 TOTAL     ACCESS:     253821  HIT:     253818  MISS:          3  HIT %:    99.9988  MISS %: 0.00118194   MPKI: 6e-05
PSCL3 LOAD TRANSLATION ACCESS:     253821  HIT:     253818  MISS:          3  HIT %:    99.9988  MISS %: 0.00118194   MPKI: 6e-05
PSCL3 PREFETCH  REQUESTED:          0  ISSUED:          0  USEFUL:          0  USELESS:          0
PSCL3 USEFUL LOAD PREFETCHES:          0 PREFETCH ISSUED TO LOWER LEVEL:          0  ACCURACY: -nan
PSCL3 TIMELY PREFETCHES:          0 LATE PREFETCHES: 0 DROPPED PREFETCHES: 0
PSCL3 PREFETCHES SAME FILL-ORIGIN LEVEL: 0 DIFFERENT FILL-ORIGIN LEVEL: 0

PSCL2 TOTAL     ACCESS:     253821  HIT:     232426  MISS:      21395  HIT %:    91.5708  MISS %:    8.42917   MPKI: 0.4279
PSCL2 LOAD TRANSLATION ACCESS:     253821  HIT:     232426  MISS:      21395  HIT %:    91.5708  MISS %:    8.42917   MPKI: 0.4279
PSCL2 PREFETCH  REQUESTED:          0  ISSUED:          0  USEFUL:          0  USELESS:          0
PSCL2 USEFUL LOAD PREFETCHES:          0 PREFETCH ISSUED TO LOWER LEVEL:          0  ACCURACY: -nan
PSCL2 TIMELY PREFETCHES:          0 LATE PREFETCHES: 0 DROPPED PREFETCHES: 0
PSCL2 PREFETCHES SAME FILL-ORIGIN LEVEL: 0 DIFFERENT FILL-ORIGIN LEVEL: 0

LLC TOTAL     ACCESS:    3220389  HIT:     884941  MISS:    2335448  HIT %:    27.4793  MISS %:    72.5207   MPKI: 46.709
LLC LOAD      ACCESS:     514389  HIT:     104008  MISS:     410381  HIT %:    20.2197  MISS %:    79.7803   MPKI: 8.20762
LLC RFO       ACCESS:      82000  HIT:          0  MISS:      82000  HIT %:          0  MISS %:        100   MPKI: 1.64
LLC PREFETCH  ACCESS:    1912570  HIT:      91365  MISS:    1821205  HIT %:    4.77708  MISS %:    95.2229   MPKI: 36.4241
LLC WRITEBACK ACCESS:     660171  HIT:     660170  MISS:          1  HIT %:    99.9998  MISS %: 0.000151476   MPKI: 2e-05
LLC LOAD TRANSLATION ACCESS:      51259  HIT:      29398  MISS:      21861  HIT %:    57.3519  MISS %:    42.6481   MPKI: 0.43722
LLC PREFETCH  REQUESTED:          0  ISSUED:          0  USEFUL:      34768  USELESS:    1774901
LLC USEFUL LOAD PREFETCHES:      34768 PREFETCH ISSUED TO LOWER LEVEL:    1821207  ACCURACY: 1.90906
LLC TIMELY PREFETCHES:      34768 LATE PREFETCHES: 0 DROPPED PREFETCHES: 0
LLC PREFETCHES SAME FILL-ORIGIN LEVEL: 0 DIFFERENT FILL-ORIGIN LEVEL: 0
LLC AVERAGE MISS LATENCY: 1369.68 cycles
LLC RQ	ACCESS:     647647	FORWARD:          0	MERGED:          0	TO_CACHE:     647647
LLC WQ	ACCESS:     660171	FORWARD:          0	MERGED:          0	TO_CACHE:     660171
LLC PQ	ACCESS:    1912572	FORWARD:          0	MERGED:          0	TO_CACHE:    1912572

LLC Dense regions hint to LLC: 0

RAW hits: 8332
Loads Generated: 11451360
Loads sent to L1D: 11443038
Stores Generated: 3399745
Stores sent to L1D: 3399739
Major fault: 0 Minor fault: 50548
Allocated PAGES: 50548

stream: 
stream:times selected: 3040668
stream:pref_filled: 1121027
stream:pref_useful: 61570
stream:pref_late: 48582
stream:misses: 363495
stream:misses_by_poll: 0

CS: 
CS:times selected: 1460262
CS:pref_filled: 1210888
CS:pref_useful: 1059461
CS:pref_late: 369290
CS:misses: 844704
CS:misses_by_poll: 5467

CPLX: 
CPLX:times selected: 1543427
CPLX:pref_filled: 34544
CPLX:pref_useful: 3239
CPLX:pref_late: 1847
CPLX:misses: 1123127
CPLX:misses_by_poll: 14

NL_L1: 
NL:times selected: 4427
NL:pref_filled: 3215
NL:pref_useful: 108
NL:pref_late: 12
NL:misses: 3890
NL:misses_by_poll: 0

total selections: 6048784
total_filled: 1535013
total_useful: 899741
total_late: 421280
total_polluted: 5481
total_misses_after_warmup: 1601757
conflicts: 62
Degree Incremented Times: 40792
Degree Decremented Times: 88987

L1 IP Table Write Accesses: 8182970
L1 IP Table Read Accesses: 8182908
L1 RST Write Accesses: 2054009
L1 RST Read Accesses: 4108018
L1 CSPT Write Accesses: 2054009
L1 CSPT Read Accesses: 2862418
L1 RR Filter Tag Write Accesses: 2123888
L1 RR Filter Tag Read Accesses: 168583468
L1 IP Table Tag Write Accesses: 8182981
L1 IP Table Tag Read Accesses: 8182981
L1 RST Tag Write Accesses: 0
L1 RST Tag Read Accesses: 18460702
L1 RR Filter Write Accesses: 0
L1 RR Filter Read Accesses: 5799667
test: 953308
L2 IP Table Read Accesses: 3786158
L2 IP Table Write Accesses: 3131520
L2 IP Table Tag Read Accesses: 1893095
L2 IP Table Tag Write Accesses: 1893095

DRAM Statistics
 CHANNEL 0
 RQ ROW_BUFFER_HIT:     582515  ROW_BUFFER_MISS:    1752873
 DBUS_CONGESTED:    3039923
 WQ ROW_BUFFER_HIT:      81805  ROW_BUFFER_MISS:     568441  FULL:          0

 AVG_CONGESTED_CYCLE: 146
 All warmup complete: 2
Channel 0 Bank busy for read cycles: 0
Channel 0 Bank busy for write cycles: 0
Channel 0
Rank 0
0banks busy for read cycles: 192160
0banks busy for write cycles: 35
1banks busy for read cycles: 35499279
1banks busy for write cycles: 183250
2banks busy for read cycles: 51196554
2banks busy for write cycles: 182087
3banks busy for read cycles: 49929022
3banks busy for write cycles: 181459
4banks busy for read cycles: 48043396
4banks busy for write cycles: 193866
5banks busy for read cycles: 44900223
5banks busy for write cycles: 281874
6banks busy for read cycles: 43591123
6banks busy for write cycles: 1096261
7banks busy for read cycles: 43799244
7banks busy for write cycles: 11956454
8banks busy for read cycles: 60509352
8banks busy for write cycles: 99747213

CPU 0 Branch Prediction Accuracy: 82.9818% MPKI: 45.6759 Average ROB Occupancy at Mispredict: 38.9138
Branch types
NOT_BRANCH: 36580016 73.16%
BRANCH_DIRECT_JUMP: 195588 0.391176%
BRANCH_INDIRECT: 0 0%
BRANCH_CONDITIONAL: 13224114 26.4482%
BRANCH_DIRECT_CALL: 3 6e-06%
BRANCH_INDIRECT_CALL: 0 0%
BRANCH_RETURN: 3 6e-06%
BRANCH_OTHER: 0 0%

@sumon_overall_L1D    899741    419917    635502   1535013   4247772   4247774
@Sumon_Early_by_class_L1D     44419    852705      2616         9
@Sumon_Late_by_class_L1D     48050    368508      1837         9

@Sumon_Early_by_cycle_L1D     40582     75210    143184    106640     61192    185711    110823     64106     98720      6878      4854      1841
@Sumon_Late_by_cycle_L1D     46549     74191     96164     49905     27070     85926     39128       984         0         0         0         0
@Sumon_Early_stream_L1D      6499     13032      4494      2219      1272      4752      3169      1910      2037      2793      1431       811
@Sumon_Early_CS_L1D     33987     61801    138108    104123     59727    180499    107463     62113     96585      3947      3361       991
@Sumon_Early_CPLX_L1D        96       376       582       298       193       460       191        83        98       138        62        39
@Sumon_Late_stream_L1D      2450      4373      8294      6660      4338     17083      4815        37         0         0         0         0
@Sumon_Late_CS_L1D     42445     69508     87437     42958     22594     68421     34198       947         0         0         0         0
@Sumon_Late_CPLX_L1D       138       309       431       287       138       419       115         0         0         0         0         0
@sumon_overall_L2C     48457     10920   1850369   1901650   2069764   2069764
@Sumon_Early_by_class_L2C     32438     15096       920         0
@Sumon_Late_by_class_L2C         0     10873         0         0

@Sumon_Early_by_cycle_L2C       356      1209      2562      2164      1210      3152      1459      1080      1205      2701      3731     27628
@Sumon_Late_by_cycle_L2C       621      1764      2876      1663      1001      2041       928        26         0         0         0         0
@Sumon_Early_stream_L2C         0         0         0         0         1         2         1        27       365      2368      3551     26123
@Sumon_Early_CS_L2C       356      1209      2562      2164      1208      3150      1457      1052       835       289        72       742
@Sumon_Early_CPLX_L2C         0         0         0         0         0         0         0         0         5        44       108       763
@Sumon_Late_stream_L2C         0         0         0         0         0         0         0         0         0         0         0         0
@Sumon_Late_CS_L2C       574      1764      2876      1663      1001      2041       928        26         0         0         0         0
@Sumon_Late_CPLX_L2C         0         0         0         0         0         0         0         0         0         0         0         0
DRAM PAGES: 1048576
Allocated PAGES: 50548
