
*** ChampSim Multicore Out-of-Order Simulator ***

Warmup Instructions: 10000000
Simulation Instructions: 50000000
Number of CPUs: 1
LLC sets: 2048
LLC ways: 16
Off-chip DRAM Size: 4096 MB Channels: 1 Width: 64-bit Data Rate: 6400 MT/s
CPU 0 runs traces/SPEC2017/602.gcc_s-2226B.champsimtrace.xz
.xz
CPU 0 Bimodal branch predictor
BTB has LRU replacement policy
ITLB has LRU replacement policy
DTLB has LRU replacement policy
STLB has LRU replacement policy
L1I has LRU replacement policy
IP Table Entries: 256
L1D has LRU replacement policy
IP_Table L2 entries: 256
L2C has LRU replacement policy
LLC has LRU replacement policy
Heartbeat CPU 0 instructions: 10000002 cycles: 3733890 heartbeat IPC: 2.67817 cumulative IPC: 2.67817 (Simulation time: 0 hr 13 min 3 sec) 

Warmup complete CPU 0 instructions: 10000002 cycles: 3733890 (Simulation time: 0 hr 13 min 3 sec) 

Heartbeat CPU 0 instructions: 20000000 cycles: 30218318 heartbeat IPC: 0.37758 cumulative IPC: 0.37758 (Simulation time: 0 hr 26 min 42 sec) 
Heartbeat CPU 0 instructions: 30000001 cycles: 56352091 heartbeat IPC: 0.382647 cumulative IPC: 0.380097 (Simulation time: 0 hr 40 min 21 sec) 
Heartbeat CPU 0 instructions: 40000002 cycles: 82041027 heartbeat IPC: 0.389273 cumulative IPC: 0.383107 (Simulation time: 0 hr 53 min 27 sec) 
Heartbeat CPU 0 instructions: 50000000 cycles: 107281449 heartbeat IPC: 0.39619 cumulative IPC: 0.386296 (Simulation time: 1 hr 2 min 3 sec) 
Heartbeat CPU 0 instructions: 60000001 cycles: 132582622 heartbeat IPC: 0.395239 cumulative IPC: 0.388052 (Simulation time: 1 hr 7 min 13 sec) 
Finished CPU 0 instructions: 50000000 cycles: 128848741 cumulative IPC: 0.388052 (Simulation time: 1 hr 7 min 13 sec) 

ChampSim completed all CPUs

Region of Interest Statistics

CPU 0 cumulative IPC: 0.388052 instructions: 50000000 cycles: 128848741
ITLB TOTAL     ACCESS:    8993032  HIT:    8993032  MISS:          0  HIT %:        100  MISS %:          0   MPKI: 0
ITLB LOAD TRANSLATION ACCESS:    8993032  HIT:    8993032  MISS:          0  HIT %:        100  MISS %:          0   MPKI: 0
ITLB PREFETCH  REQUESTED:          0  ISSUED:          0  USEFUL:          0  USELESS:          0
ITLB USEFUL LOAD PREFETCHES:          0 PREFETCH ISSUED TO LOWER LEVEL:          0  ACCURACY: -nan
ITLB TIMELY PREFETCHES:          0 LATE PREFETCHES: 0 DROPPED PREFETCHES: 0
ITLB PREFETCHES SAME FILL-ORIGIN LEVEL: 0 DIFFERENT FILL-ORIGIN LEVEL: 0
ITLB AVERAGE MISS LATENCY: -nan cycles
ITLB RQ	ACCESS:    9167880	FORWARD:          0	MERGED:     174848	TO_CACHE:    8993032

ITLB_Dead_block_count 0 0
ITLB_inaccurate_prefetch_count 0 0
Interactions: positive negative neutral
ITLB_interactions 0 0 0
ITLB_positive 0 0 0
ITLB_negative 0 0 0
ITLB_neutral 0 0 0 0 0 0
DTLB TOTAL     ACCESS:    7726238  HIT:    7657183  MISS:      69055  HIT %:    99.1062  MISS %:   0.893773   MPKI: 1.3811
DTLB LOAD TRANSLATION ACCESS:    7726238  HIT:    7657183  MISS:      69055  HIT %:    99.1062  MISS %:   0.893773   MPKI: 1.3811
DTLB PREFETCH  REQUESTED:          0  ISSUED:          0  USEFUL:          0  USELESS:          0
DTLB USEFUL LOAD PREFETCHES:          0 PREFETCH ISSUED TO LOWER LEVEL:          0  ACCURACY: -nan
DTLB TIMELY PREFETCHES:          0 LATE PREFETCHES: 0 DROPPED PREFETCHES: 0
DTLB PREFETCHES SAME FILL-ORIGIN LEVEL: 0 DIFFERENT FILL-ORIGIN LEVEL: 0
DTLB AVERAGE MISS LATENCY: 117.14 cycles
DTLB RQ	ACCESS:    9092750	FORWARD:          0	MERGED:    1366260	TO_CACHE:    7726490

DTLB_Dead_block_count 69051 4
DTLB_inaccurate_prefetch_count 0 0
Interactions: positive negative neutral
DTLB_interactions 0 0 0
DTLB_positive 0 0 0
DTLB_negative 0 0 0
DTLB_neutral 0 0 0 0 0 0
STLB TOTAL     ACCESS:    3060949  HIT:    2994523  MISS:      66426  HIT %:    97.8299  MISS %:    2.17011   MPKI: 1.32852
STLB LOAD TRANSLATION ACCESS:      69055  HIT:       2634  MISS:      66421  HIT %:    3.81435  MISS %:    96.1856   MPKI: 1.32842
STLB TRANSLATION FROM L1D PREFETCHER ACCESS:    2991894  HIT:    2991889  MISS:          5  HIT %:    99.9998  MISS %: 0.000167118   MPKI: 0.0001
STLB PREFETCH  REQUESTED:          0  ISSUED:          0  USEFUL:          5  USELESS:          0
STLB USEFUL LOAD PREFETCHES:          5 PREFETCH ISSUED TO LOWER LEVEL:          0  ACCURACY: inf
STLB TIMELY PREFETCHES:          5 LATE PREFETCHES: 0 DROPPED PREFETCHES: 0
STLB PREFETCHES SAME FILL-ORIGIN LEVEL: 0 DIFFERENT FILL-ORIGIN LEVEL: 0
STLB AVERAGE MISS LATENCY: 112.421 cycles
STLB RQ	ACCESS:    5042984	FORWARD:          0	MERGED:    1982035	TO_CACHE:    3060949

STLB_Dead_block_count 66422 4
STLB_inaccurate_prefetch_count 0 0
Interactions: positive negative neutral
STLB_interactions 0 0 0
STLB_positive 0 0 0
STLB_negative 0 0 0
STLB_neutral 0 0 0 0 0 0
STLB Hit, L1D data hit: 0
STLB Hit, L2C data hit: 0
STLB Hit, LLC data hit: 0
STLB Hit, LLC data miss: 0
STLB STLB hints to L2: 0
L1D TOTAL     ACCESS:   13980541  HIT:   10148266  MISS:    3832275  HIT %:    72.5885  MISS %:    27.4115   MPKI: 76.6455
L1D LOAD      ACCESS:    8355672  HIT:    8249703  MISS:     105969  HIT %:    98.7318  MISS %:    1.26823   MPKI: 2.11938
L1D RFO       ACCESS:     654026  HIT:     653883  MISS:        143  HIT %:    99.9781  MISS %:  0.0218646   MPKI: 0.00286
L1D PREFETCH  ACCESS:    4970843  HIT:    1244680  MISS:    3726163  HIT %:    25.0396  MISS %:    74.9604   MPKI: 74.5233
L1D PREFETCH  REQUESTED:    9947930  ISSUED:    9947858  USEFUL:    3382074  USELESS:     344048
L1D USEFUL LOAD PREFETCHES:    3382074 PREFETCH ISSUED TO LOWER LEVEL:    3726570  ACCURACY: 90.7557
L1D TIMELY PREFETCHES:    3382074 LATE PREFETCHES: 79770 DROPPED PREFETCHES: 0
L1D PREFETCHES SAME FILL-ORIGIN LEVEL: 3726570 DIFFERENT FILL-ORIGIN LEVEL: 0
L1D AVERAGE MISS LATENCY: 411.355 cycles
L1D RQ	ACCESS:   17944824	FORWARD:          0	MERGED:    9504543	TO_CACHE:    8438720
L1D WQ	ACCESS:     726008	FORWARD:       1561	MERGED:      71978	TO_CACHE:     654030
L1D PQ	ACCESS:    4973929	FORWARD:          0	MERGED:          0	TO_CACHE:    4973929

L1D_Dead_block_count 31 105938
L1D_inaccurate_prefetch_count 22492 3703689
Interactions: positive negative neutral
L1D_interactions 15742 22089 3700298
L1D_positive 1556 875 13311
L1D_negative 18445 5 3639
L1D_neutral 3374056 11086 24 0 383 314749
L1D UNIQUE REGIONS ACCESSED: 0
L1D REGIONS CONFLICTS: 0
L1D Cross Page Prefetch Requests: 0
L1D Same Page Prefetch Requests: 5944317
L1D ROI Sum of L1D PQ occupancy: 65537119
L1D PREFETCHES PUSHED FROM L2C: 0
L1I TOTAL     ACCESS:    9167879  HIT:    9167879  MISS:          0  HIT %:        100  MISS %:          0   MPKI: 0
L1I LOAD      ACCESS:    9167879  HIT:    9167879  MISS:          0  HIT %:        100  MISS %:          0   MPKI: 0
L1I PREFETCH  REQUESTED:          0  ISSUED:          0  USEFUL:          0  USELESS:          0
L1I USEFUL LOAD PREFETCHES:          0 PREFETCH ISSUED TO LOWER LEVEL:          0  ACCURACY: -nan
L1I TIMELY PREFETCHES:          0 LATE PREFETCHES: 0 DROPPED PREFETCHES: 0
L1I PREFETCHES SAME FILL-ORIGIN LEVEL: 0 DIFFERENT FILL-ORIGIN LEVEL: 0
L1I AVERAGE MISS LATENCY: -nan cycles
L1I RQ	ACCESS:   13770614	FORWARD:          0	MERGED:    4602734	TO_CACHE:    9167880

L1I_Dead_block_count 0 0
L1I_inaccurate_prefetch_count 0 0
Interactions: positive negative neutral
L1I_interactions 0 0 0
L1I_positive 0 0 0
L1I_negative 0 0 0
L1I_neutral 0 0 0 0 0 0
BTB TOTAL     ACCESS:   11916744  HIT:   11916646  MISS:         98  HIT %:    99.9992  MISS %: 0.000822372   MPKI: 0.00196
BTB BRANCH_DIRECT_JUMP	ACCESS:     169060  HIT:     169034  MISS:         26
BTB BRANCH_INDIRECT	ACCESS:          0  HIT:          0  MISS:          0
BTB BRANCH_CONDITIONAL	ACCESS:   11581020  HIT:   11580971  MISS:         49
BTB BRANCH_DIRECT_CALL	ACCESS:      83332  HIT:      83322  MISS:         10
BTB BRANCH_INDIRECT_CALL	ACCESS:          0  HIT:          0  MISS:          0
BTB BRANCH_RETURN	ACCESS:      83332  HIT:      83319  MISS:         13
BTB BRANCH_OTHER ACCESS:          0  HIT:          0  MISS:          0

L2C TOTAL     ACCESS:    6770694  HIT:    3031525  MISS:    3739169  HIT %:    44.7742  MISS %:    55.2258   MPKI: 74.7834
L2C LOAD      ACCESS:     105949  HIT:      27938  MISS:      78011  HIT %:    26.3693  MISS %:    73.6307   MPKI: 1.56022
L2C DATA LOAD MPKI: 1.56022
L2C INSTRUCTION LOAD MPKI: 0
L2C RFO       ACCESS:        125  HIT:         96  MISS:         29  HIT %:       76.8  MISS %:       23.2   MPKI: 0.00058
L2C PREFETCH  ACCESS:    6590905  HIT:    2945688  MISS:    3645217  HIT %:    44.6932  MISS %:    55.3068   MPKI: 72.9043
L2C DATA PREFETCH MPKI: 72.9043
L2C INSTRUCTION PREFETCH MPKI: 0
L2C WRITEBACK ACCESS:       6136  HIT:       5966  MISS:        170  HIT %:    97.2295  MISS %:    2.77053   MPKI: 0.0034
L2C LOAD TRANSLATION ACCESS:      67571  HIT:      51834  MISS:      15737  HIT %:    76.7104  MISS %:    23.2896   MPKI: 0.31474
L2C TRANSLATION FROM L1D PREFETCHER ACCESS:          8  HIT:          3  MISS:          5  HIT %:       37.5  MISS %:       62.5   MPKI: 0.0001
L2C PREFETCH  REQUESTED:    7227263  ISSUED:    7227219  USEFUL:      12305  USELESS:    3632916
L2C USEFUL LOAD PREFETCHES:      12305 PREFETCH ISSUED TO LOWER LEVEL:    3645478  ACCURACY: 0.337541
L2C TIMELY PREFETCHES:      12305 LATE PREFETCHES: 261 DROPPED PREFETCHES: 0
L2C PREFETCHES SAME FILL-ORIGIN LEVEL: 2857802 DIFFERENT FILL-ORIGIN LEVEL: 0
L2C AVERAGE MISS LATENCY: 109.429 cycles
L2C RQ	ACCESS:     173673	FORWARD:          0	MERGED:          0	TO_CACHE:     173653
L2C WQ	ACCESS:       6136	FORWARD:         20	MERGED:          0	TO_CACHE:       6136
L2C PQ	ACCESS:   10953400	FORWARD:          0	MERGED:    2050610	TO_CACHE:    8902790

L2C_Dead_block_count 66214 27307
L2C_inaccurate_prefetch_count 3615380 30098
Interactions: positive negative neutral
L2C_interactions 38956 40711 3604750
L2C_positive 312 9932 28712
L2C_negative 13930 229 26552
L2C_neutral 116 94 37312 28940 3538067 221
L2C Instructions Evicting Data 0
L2C Translations Evicting Data 15693
L2C Data Evicting Data 3707569
L2C Instructions Evicting Instructions 0
L2C Translations Evicting Instructions 0
L2C Data Evicting Instructions 0
L2C Instructions Evicting Translations 0
L2C Translations Evicting Translations 49
L2C Data Evicting Translations 15688
L2C Dense regions hint from L2: 0
PSCL5 TOTAL     ACCESS:      66426  HIT:      66426  MISS:          0  HIT %:        100  MISS %:          0   MPKI: 0
PSCL5 LOAD TRANSLATION ACCESS:      66421  HIT:      66421  MISS:          0  HIT %:        100  MISS %:          0   MPKI: 0
PSCL5 TRANSLATION FROM L1D PREFETCHER ACCESS:          5  HIT:          5  MISS:          0  HIT %:        100  MISS %:          0   MPKI: 0
PSCL5 PREFETCH  REQUESTED:          0  ISSUED:          0  USEFUL:          0  USELESS:          0
PSCL5 USEFUL LOAD PREFETCHES:          0 PREFETCH ISSUED TO LOWER LEVEL:          0  ACCURACY: -nan
PSCL5 TIMELY PREFETCHES:          0 LATE PREFETCHES: 0 DROPPED PREFETCHES: 0
PSCL5 PREFETCHES SAME FILL-ORIGIN LEVEL: 0 DIFFERENT FILL-ORIGIN LEVEL: 0

PSCL5_Dead_block_count 0 0
PSCL5_inaccurate_prefetch_count 0 0
Interactions: positive negative neutral
PSCL5_interactions 0 0 0
PSCL5_positive 0 0 0
PSCL5_negative 0 0 0
PSCL5_neutral 0 0 0 0 0 0
PSCL4 TOTAL     ACCESS:      66426  HIT:      66426  MISS:          0  HIT %:        100  MISS %:          0   MPKI: 0
PSCL4 LOAD TRANSLATION ACCESS:      66421  HIT:      66421  MISS:          0  HIT %:        100  MISS %:          0   MPKI: 0
PSCL4 TRANSLATION FROM L1D PREFETCHER ACCESS:          5  HIT:          5  MISS:          0  HIT %:        100  MISS %:          0   MPKI: 0
PSCL4 PREFETCH  REQUESTED:          0  ISSUED:          0  USEFUL:          0  USELESS:          0
PSCL4 USEFUL LOAD PREFETCHES:          0 PREFETCH ISSUED TO LOWER LEVEL:          0  ACCURACY: -nan
PSCL4 TIMELY PREFETCHES:          0 LATE PREFETCHES: 0 DROPPED PREFETCHES: 0
PSCL4 PREFETCHES SAME FILL-ORIGIN LEVEL: 0 DIFFERENT FILL-ORIGIN LEVEL: 0

PSCL4_Dead_block_count 0 0
PSCL4_inaccurate_prefetch_count 0 0
Interactions: positive negative neutral
PSCL4_interactions 0 0 0
PSCL4_positive 0 0 0
PSCL4_negative 0 0 0
PSCL4_neutral 0 0 0 0 0 0
PSCL3 TOTAL     ACCESS:      66424  HIT:      66417  MISS:          7  HIT %:    99.9895  MISS %:  0.0105384   MPKI: 0.00014
PSCL3 LOAD TRANSLATION ACCESS:      66420  HIT:      66413  MISS:          7  HIT %:    99.9895  MISS %:   0.010539   MPKI: 0.00014
PSCL3 TRANSLATION FROM L1D PREFETCHER ACCESS:          4  HIT:          4  MISS:          0  HIT %:        100  MISS %:          0   MPKI: 0
PSCL3 PREFETCH  REQUESTED:          0  ISSUED:          0  USEFUL:          0  USELESS:          0
PSCL3 USEFUL LOAD PREFETCHES:          0 PREFETCH ISSUED TO LOWER LEVEL:          0  ACCURACY: -nan
PSCL3 TIMELY PREFETCHES:          0 LATE PREFETCHES: 0 DROPPED PREFETCHES: 0
PSCL3 PREFETCHES SAME FILL-ORIGIN LEVEL: 0 DIFFERENT FILL-ORIGIN LEVEL: 0

PSCL3_Dead_block_count 0 0
PSCL3_inaccurate_prefetch_count 0 0
Interactions: positive negative neutral
PSCL3_interactions 0 0 0
PSCL3_positive 0 0 0
PSCL3_negative 0 0 0
PSCL3_neutral 0 0 0 0 0 0
PSCL2 TOTAL     ACCESS:      66426  HIT:      64852  MISS:       1574  HIT %:    97.6304  MISS %:    2.36955   MPKI: 0.03148
PSCL2 LOAD TRANSLATION ACCESS:      66423  HIT:      64849  MISS:       1574  HIT %:    97.6303  MISS %:    2.36966   MPKI: 0.03148
PSCL2 TRANSLATION FROM L1D PREFETCHER ACCESS:          3  HIT:          3  MISS:          0  HIT %:        100  MISS %:          0   MPKI: 0
PSCL2 PREFETCH  REQUESTED:          0  ISSUED:          0  USEFUL:          0  USELESS:          0
PSCL2 USEFUL LOAD PREFETCHES:          0 PREFETCH ISSUED TO LOWER LEVEL:          0  ACCURACY: -nan
PSCL2 TIMELY PREFETCHES:          0 LATE PREFETCHES: 0 DROPPED PREFETCHES: 0
PSCL2 PREFETCHES SAME FILL-ORIGIN LEVEL: 0 DIFFERENT FILL-ORIGIN LEVEL: 0

PSCL2_Dead_block_count 0 0
PSCL2_inaccurate_prefetch_count 0 0
Interactions: positive negative neutral
PSCL2_interactions 0 0 0
PSCL2_positive 0 0 0
PSCL2_negative 0 0 0
PSCL2_neutral 0 0 0 0 0 0
LLC TOTAL     ACCESS:    3744841  HIT:      24020  MISS:    3720821  HIT %:   0.641416  MISS %:    99.3586   MPKI: 74.4164
LLC LOAD      ACCESS:      77750  HIT:       1112  MISS:      76638  HIT %:    1.43023  MISS %:    98.5698   MPKI: 1.53276
LLC RFO       ACCESS:         29  HIT:          0  MISS:         29  HIT %:          0  MISS %:        100   MPKI: 0.00058
LLC PREFETCH  ACCESS:    3645478  HIT:      16377  MISS:    3629101  HIT %:   0.449241  MISS %:    99.5508   MPKI: 72.582
LLC WRITEBACK ACCESS:       5842  HIT:       5754  MISS:         88  HIT %:    98.4937  MISS %:    1.50633   MPKI: 0.00176
LLC LOAD TRANSLATION ACCESS:      15737  HIT:        777  MISS:      14960  HIT %:    4.93741  MISS %:    95.0626   MPKI: 0.2992
LLC TRANSLATION FROM L1D PREFETCHER ACCESS:          5  HIT:          0  MISS:          5  HIT %:          0  MISS %:        100   MPKI: 0.0001
LLC PREFETCH  REQUESTED:          0  ISSUED:          0  USEFUL:        207  USELESS:    3629005
LLC USEFUL LOAD PREFETCHES:        207 PREFETCH ISSUED TO LOWER LEVEL:    3629101  ACCURACY: 0.00570389
LLC TIMELY PREFETCHES:        207 LATE PREFETCHES: 0 DROPPED PREFETCHES: 0
LLC PREFETCHES SAME FILL-ORIGIN LEVEL: 0 DIFFERENT FILL-ORIGIN LEVEL: 0
LLC AVERAGE MISS LATENCY: 79.6712 cycles
LLC RQ	ACCESS:      93521	FORWARD:          0	MERGED:          0	TO_CACHE:      93521
LLC WQ	ACCESS:       5842	FORWARD:          0	MERGED:          0	TO_CACHE:       5842
LLC PQ	ACCESS:    3645478	FORWARD:          0	MERGED:          0	TO_CACHE:    3645478

LLC_Dead_block_count 89739 1893
LLC_inaccurate_prefetch_count 3628533 568
Interactions: positive negative neutral
LLC_interactions 447 610 3665216
LLC_positive 1 391 55
LLC_negative 554 1 55
LLC_neutral 0 0 36797 36775 3591644 0
LLC Dense regions hint to LLC: 0

RAW hits: 4012
Loads Generated: 17948838
Loads sent to L1D: 17944824
Stores Generated: 726008
Stores sent to L1D: 726008
Major fault: 0 Minor fault: 48862
Allocated PAGES: 48862

stream: 
stream:times selected: 7692925
stream:pref_filled: 4106613
stream:pref_useful: 3797981
stream:pref_late: 48059
stream:misses: 8075
stream:misses_by_poll: 0

CS: 
CS:times selected: 5072843
CS:pref_filled: 32264
CS:pref_useful: 28867
CS:pref_late: 4330
CS:misses: 165604
CS:misses_by_poll: 488

CPLX: 
CPLX:times selected: 2617373
CPLX:pref_filled: 325598
CPLX:pref_useful: 224866
CPLX:pref_late: 1892
CPLX:misses: 53152
CPLX:misses_by_poll: 3214

NL_L1: 
NL:times selected: 1757
NL:pref_filled: 39
NL:pref_useful: 32
NL:pref_late: 4
NL:misses: 102
NL:misses_by_poll: 0

total selections: 15384898
total_filled: 3726163
total_useful: 3382074
total_late: 54285
total_polluted: 3702
total_misses_after_warmup: 189019
conflicts: 378
Degree Incremented Times: 77981
Degree Decremented Times: 0

L1 IP Table Write Accesses: 8418880
L1 IP Table Read Accesses: 8418502
L1 RST Write Accesses: 5755321
L1 RST Read Accesses: 11510642
L1 CSPT Write Accesses: 5755321
L1 CSPT Read Accesses: 12170442
L1 RR Filter Tag Write Accesses: 4974001
L1 RR Filter Tag Read Accesses: 1290333003
L1 IP Table Tag Write Accesses: 8438722
L1 IP Table Tag Read Accesses: 8438722
L1 RST Tag Write Accesses: 0
L1 RST Tag Read Accesses: 52234656
L1 RR Filter Write Accesses: 0
L1 RR Filter Read Accesses: 46888250
test: 1010208
L2 IP Table Read Accesses: 3226818
L2 IP Table Write Accesses: 3120885
L2 IP Table Tag Read Accesses: 1613417
L2 IP Table Tag Write Accesses: 1613417

DRAM Statistics
 CHANNEL 0
 RQ ROW_BUFFER_HIT:    3456014  ROW_BUFFER_MISS:     264719
 DBUS_CONGESTED:        558
 WQ ROW_BUFFER_HIT:        686  ROW_BUFFER_MISS:       5073  FULL:          0

 AVG_CONGESTED_CYCLE: 3
 All warmup complete: 2
Channel 0 Bank busy for read cycles: 0
Channel 0 Bank busy for write cycles: 0
Channel 0
Rank 0
0banks busy for read cycles: 62378006
0banks busy for write cycles: 2876
1banks busy for read cycles: 16504735
1banks busy for write cycles: 607772
2banks busy for read cycles: 13607390
2banks busy for write cycles: 208301
3banks busy for read cycles: 9942062
3banks busy for write cycles: 103417
4banks busy for read cycles: 5369997
4banks busy for write cycles: 42790
5banks busy for read cycles: 10324246
5banks busy for write cycles: 20762
6banks busy for read cycles: 3178308
6banks busy for write cycles: 15918
7banks busy for read cycles: 5452281
7banks busy for write cycles: 7661
8banks busy for read cycles: 1079185
8banks busy for write cycles: 3035

CPU 0 Branch Prediction Accuracy: 99.1283% MPKI: 3.10846 Average ROB Occupancy at Mispredict: 105.501
Branch types
NOT_BRANCH: 32169788 64.3396%
BRANCH_DIRECT_JUMP: 169060 0.33812%
BRANCH_INDIRECT: 0 0%
BRANCH_CONDITIONAL: 17494490 34.989%
BRANCH_DIRECT_CALL: 83332 0.166664%
BRANCH_INDIRECT_CALL: 0 0%
BRANCH_RETURN: 83332 0.166664%
BRANCH_OTHER: 0 0%

@sumon_overall_L1D   3382074     79770     79770    344048   3726163   9947858   9947930
@Sumon_Early_by_class_L1D   3144471     23986    213588         2
@Sumon_Late_by_class_L1D     37259      4129      1779         2

@Sumon_Early_by_cycle_L1D    818526   2088890    280895     33867     31107     42424     15109     58509      5395      4911      1621       820
@Sumon_Late_by_cycle_L1D      8556      9695     10068     12467      2383         0
@Sumon_Early_stream_L1D    775092   2002338    232643     10718     17108     28829     13715     53908      3677      4218      1531       694
@Sumon_Early_CS_L1D     20232      1061       626        96        94       367       864       598         7        24        16         1
@Sumon_Early_CPLX_L1D     23184     85483     47625     23053     13905     13227       530      4003      1711       668        74       125
@Sumon_Late_stream_L1D      7785      7399      8565     11378      2132         0
@Sumon_Late_CS_L1D       496      1613      1186       700       134         0
@Sumon_Late_CPLX_L1D       275       682       317       388       117         0
@sumon_overall_L2C     12305       261         0   3632916   3645222   7227219   7227263
@Sumon_Early_by_class_L2C     11761       113       431         0
@Sumon_Late_by_class_L2C       222        18         0         0

@Sumon_Early_by_cycle_L2C      1637      3077       990       142        60       134         6         4       415      1620      1312      2908
@Sumon_Late_by_cycle_L2C        21        41        85        87        27         0
@Sumon_Early_stream_L2C      1555      3068       989       142        59       134         6         4       404      1553      1245      2602
@Sumon_Early_CS_L2C        82         9         1         0         1         0         0         0         0         1         3        16
@Sumon_Early_CPLX_L2C         0         0         0         0         0         0         0         0        11        66        64       290
@Sumon_Late_stream_L2C         0        34        78        84        26         0
@Sumon_Late_CS_L2C         0         7         7         3         1         0
@Sumon_Late_CPLX_L2C         0         0         0         0         0         0
DRAM PAGES: 1048576
Allocated PAGES: 48862
