
*** ChampSim Multicore Out-of-Order Simulator ***

Warmup Instructions: 10000000
Simulation Instructions: 50000000
Number of CPUs: 1
LLC sets: 2048
LLC ways: 16
Off-chip DRAM Size: 4096 MB Channels: 1 Width: 64-bit Data Rate: 6400 MT/s
CPU 0 runs traces/SPEC2017/654.roms_s-1613B.champsimtrace.xz
.xz
CPU 0 Bimodal branch predictor
BTB has LRU replacement policy
ITLB has LRU replacement policy
DTLB has LRU replacement policy
STLB has LRU replacement policy
L1I has LRU replacement policy
IP Table Entries: 256
L1D has LRU replacement policy
IP_Table L2 entries: 256
L2C has LRU replacement policy
LLC has LRU replacement policy
Heartbeat CPU 0 instructions: 10000001 cycles: 2910547 heartbeat IPC: 3.43578 cumulative IPC: 3.43578 (Simulation time: 0 hr 9 min 21 sec) 

Warmup complete CPU 0 instructions: 10000001 cycles: 2910547 (Simulation time: 0 hr 9 min 21 sec) 

Heartbeat CPU 0 instructions: 20000003 cycles: 19552607 heartbeat IPC: 0.600887 cumulative IPC: 0.600887 (Simulation time: 0 hr 17 min 41 sec) 
Heartbeat CPU 0 instructions: 30000003 cycles: 36193674 heartbeat IPC: 0.600923 cumulative IPC: 0.600905 (Simulation time: 0 hr 26 min 4 sec) 
Heartbeat CPU 0 instructions: 40000000 cycles: 52838468 heartbeat IPC: 0.600788 cumulative IPC: 0.600866 (Simulation time: 0 hr 34 min 30 sec) 
Heartbeat CPU 0 instructions: 50000001 cycles: 73758627 heartbeat IPC: 0.478008 cumulative IPC: 0.564588 (Simulation time: 0 hr 45 min 12 sec) 
Heartbeat CPU 0 instructions: 60000001 cycles: 90434496 heartbeat IPC: 0.599669 cumulative IPC: 0.571272 (Simulation time: 0 hr 53 min 3 sec) 
Finished CPU 0 instructions: 50000000 cycles: 87523949 cumulative IPC: 0.571272 (Simulation time: 0 hr 53 min 3 sec) 

ChampSim completed all CPUs

Region of Interest Statistics

CPU 0 cumulative IPC: 0.571272 instructions: 50000000 cycles: 87523949
ITLB TOTAL     ACCESS:    7738453  HIT:    7738438  MISS:         15  HIT %:    99.9998  MISS %: 0.000193837   MPKI: 0.0003
ITLB LOAD TRANSLATION ACCESS:    7738453  HIT:    7738438  MISS:         15  HIT %:    99.9998  MISS %: 0.000193837   MPKI: 0.0003
ITLB PREFETCH  REQUESTED:          0  ISSUED:          0  USEFUL:          0  USELESS:          0
ITLB USEFUL LOAD PREFETCHES:          0 PREFETCH ISSUED TO LOWER LEVEL:          0  ACCURACY: -nan
ITLB TIMELY PREFETCHES:          0 LATE PREFETCHES: 0 DROPPED PREFETCHES: 0
ITLB PREFETCHES SAME FILL-ORIGIN LEVEL: 0 DIFFERENT FILL-ORIGIN LEVEL: 0
ITLB AVERAGE MISS LATENCY: 281.933 cycles
ITLB RQ	ACCESS:    9996602	FORWARD:          0	MERGED:    2258149	TO_CACHE:    7738453

ITLB_Dead_block_count 11 4
ITLB_inaccurate_prefetch_count 0 0
Interactions: positive negative neutral
ITLB_interactions 0 0 0
ITLB_positive 0 0 0
ITLB_negative 0 0 0
ITLB_neutral 0 0 0 0 0 0
DTLB TOTAL     ACCESS:   10739226  HIT:   10734389  MISS:       4837  HIT %:     99.955  MISS %:  0.0450405   MPKI: 0.09674
DTLB LOAD TRANSLATION ACCESS:   10739226  HIT:   10734389  MISS:       4837  HIT %:     99.955  MISS %:  0.0450405   MPKI: 0.09674
DTLB PREFETCH  REQUESTED:          0  ISSUED:          0  USEFUL:          0  USELESS:          0
DTLB USEFUL LOAD PREFETCHES:          0 PREFETCH ISSUED TO LOWER LEVEL:          0  ACCURACY: -nan
DTLB TIMELY PREFETCHES:          0 LATE PREFETCHES: 0 DROPPED PREFETCHES: 0
DTLB PREFETCHES SAME FILL-ORIGIN LEVEL: 0 DIFFERENT FILL-ORIGIN LEVEL: 0
DTLB AVERAGE MISS LATENCY: 157.109 cycles
DTLB RQ	ACCESS:   12767337	FORWARD:          0	MERGED:    2023488	TO_CACHE:   10743849

DTLB_Dead_block_count 4833 4
DTLB_inaccurate_prefetch_count 0 0
Interactions: positive negative neutral
DTLB_interactions 0 0 0
DTLB_positive 0 0 0
DTLB_negative 0 0 0
DTLB_neutral 0 0 0 0 0 0
STLB TOTAL     ACCESS:     300293  HIT:     295733  MISS:       4560  HIT %:    98.4815  MISS %:    1.51852   MPKI: 0.0912
STLB LOAD TRANSLATION ACCESS:       4852  HIT:        293  MISS:       4559  HIT %:    6.03875  MISS %:    93.9613   MPKI: 0.09118
STLB TRANSLATION FROM L1D PREFETCHER ACCESS:     295441  HIT:     295440  MISS:          1  HIT %:    99.9997  MISS %: 0.000338477   MPKI: 2e-05
STLB PREFETCH  REQUESTED:          0  ISSUED:          0  USEFUL:          1  USELESS:          0
STLB USEFUL LOAD PREFETCHES:          1 PREFETCH ISSUED TO LOWER LEVEL:          0  ACCURACY: inf
STLB TIMELY PREFETCHES:          1 LATE PREFETCHES: 0 DROPPED PREFETCHES: 0
STLB PREFETCHES SAME FILL-ORIGIN LEVEL: 0 DIFFERENT FILL-ORIGIN LEVEL: 0
STLB AVERAGE MISS LATENCY: 157.986 cycles
STLB RQ	ACCESS:    1305957	FORWARD:          0	MERGED:    1005663	TO_CACHE:     300294

STLB_Dead_block_count 4556 4
STLB_inaccurate_prefetch_count 0 0
Interactions: positive negative neutral
STLB_interactions 0 0 0
STLB_positive 0 0 0
STLB_negative 0 0 0
STLB_neutral 0 0 0 0 0 0
STLB Hit, L1D data hit: 0
STLB Hit, L2C data hit: 0
STLB Hit, LLC data hit: 0
STLB Hit, LLC data miss: 0
STLB STLB hints to L2: 0
L1D TOTAL     ACCESS:   13598692  HIT:   13368297  MISS:     230395  HIT %:    98.3058  MISS %:    1.69424   MPKI: 4.6079
L1D LOAD      ACCESS:    7534516  HIT:    7529205  MISS:       5311  HIT %:    99.9295  MISS %:  0.0704889   MPKI: 0.10622
L1D RFO       ACCESS:    4764677  HIT:    4676192  MISS:      88485  HIT %:    98.1429  MISS %:     1.8571   MPKI: 1.7697
L1D PREFETCH  ACCESS:    1299499  HIT:    1162900  MISS:     136599  HIT %:    89.4883  MISS %:    10.5117   MPKI: 2.73198
L1D PREFETCH  REQUESTED:    2602757  ISSUED:    2602212  USEFUL:     126032  USELESS:      10582
L1D USEFUL LOAD PREFETCHES:     126032 PREFETCH ISSUED TO LOWER LEVEL:     136601  ACCURACY: 92.2629
L1D TIMELY PREFETCHES:     126032 LATE PREFETCHES: 11625 DROPPED PREFETCHES: 0
L1D PREFETCHES SAME FILL-ORIGIN LEVEL: 136601 DIFFERENT FILL-ORIGIN LEVEL: 0
L1D AVERAGE MISS LATENCY: 141.008 cycles
L1D RQ	ACCESS:   10183689	FORWARD:          0	MERGED:    2625676	TO_CACHE:    7551813
L1D WQ	ACCESS:    5563751	FORWARD:       6202	MERGED:     348227	TO_CACHE:    5215524
L1D PQ	ACCESS:    1301107	FORWARD:          0	MERGED:          0	TO_CACHE:    1301105

L1D_Dead_block_count 4 5307
L1D_inaccurate_prefetch_count 30 136569
Interactions: positive negative neutral
L1D_interactions 18 30 139065
L1D_positive 6 2 10
L1D_negative 29 0 1
L1D_neutral 128496 2512 0 0 0 8057
L1D UNIQUE REGIONS ACCESSED: 0
L1D REGIONS CONFLICTS: 0
L1D Cross Page Prefetch Requests: 0
L1D Same Page Prefetch Requests: 1586086
L1D ROI Sum of L1D PQ occupancy: 19037565
L1D PREFETCHES PUSHED FROM L2C: 0
L1I TOTAL     ACCESS:    9996561  HIT:    9996384  MISS:        177  HIT %:    99.9982  MISS %: 0.00177061   MPKI: 0.00354
L1I LOAD      ACCESS:    9996561  HIT:    9996384  MISS:        177  HIT %:    99.9982  MISS %: 0.00177061   MPKI: 0.00354
L1I PREFETCH  REQUESTED:          0  ISSUED:          0  USEFUL:          0  USELESS:          0
L1I USEFUL LOAD PREFETCHES:          0 PREFETCH ISSUED TO LOWER LEVEL:          0  ACCURACY: -nan
L1I TIMELY PREFETCHES:          0 LATE PREFETCHES: 0 DROPPED PREFETCHES: 0
L1I PREFETCHES SAME FILL-ORIGIN LEVEL: 0 DIFFERENT FILL-ORIGIN LEVEL: 0
L1I AVERAGE MISS LATENCY: 181.949 cycles
L1I RQ	ACCESS:   14517246	FORWARD:          0	MERGED:    4520644	TO_CACHE:    9996602

L1I_Dead_block_count 173 4
L1I_inaccurate_prefetch_count 0 0
Interactions: positive negative neutral
L1I_interactions 0 0 0
L1I_positive 0 0 0
L1I_negative 0 0 0
L1I_neutral 0 0 0 0 0 0
BTB TOTAL     ACCESS:    3115019  HIT:    2767458  MISS:     347561  HIT %:    88.8424  MISS %:    11.1576   MPKI: 6.95122
BTB BRANCH_DIRECT_JUMP	ACCESS:     347719  HIT:     347681  MISS:         38
BTB BRANCH_INDIRECT	ACCESS:         16  HIT:         15  MISS:          1
BTB BRANCH_CONDITIONAL	ACCESS:    1377020  HIT:    1376893  MISS:        127
BTB BRANCH_DIRECT_CALL	ACCESS:     695131  HIT:     695086  MISS:         45
BTB BRANCH_INDIRECT_CALL	ACCESS:          0  HIT:          0  MISS:          0
BTB BRANCH_RETURN	ACCESS:     695133  HIT:     347783  MISS:     347350
BTB BRANCH_OTHER ACCESS:          0  HIT:          0  MISS:          0

L2C TOTAL     ACCESS:     753978  HIT:     515448  MISS:     238530  HIT %:    68.3638  MISS %:    31.6362   MPKI: 4.7706
L2C LOAD      ACCESS:       5488  HIT:        180  MISS:       5308  HIT %:    3.27988  MISS %:    96.7201   MPKI: 0.10616
L2C DATA LOAD MPKI: 0.10262
L2C INSTRUCTION LOAD MPKI: 0.00354
L2C RFO       ACCESS:      88485  HIT:         15  MISS:      88470  HIT %:   0.016952  MISS %:     99.983   MPKI: 1.7694
L2C PREFETCH  ACCESS:     566926  HIT:     423274  MISS:     143652  HIT %:    74.6612  MISS %:    25.3388   MPKI: 2.87304
L2C DATA PREFETCH MPKI: 2.87304
L2C INSTRUCTION PREFETCH MPKI: 0
L2C WRITEBACK ACCESS:      88519  HIT:      88319  MISS:        200  HIT %:    99.7741  MISS %:    0.22594   MPKI: 0.004
L2C LOAD TRANSLATION ACCESS:       4559  HIT:       3659  MISS:        900  HIT %:    80.2588  MISS %:    19.7412   MPKI: 0.018
L2C TRANSLATION FROM L1D PREFETCHER ACCESS:          1  HIT:          1  MISS:          0  HIT %:        100  MISS %:          0   MPKI: 0
L2C PREFETCH  REQUESTED:     602732  ISSUED:     602732  USEFUL:        194  USELESS:     142632
L2C USEFUL LOAD PREFETCHES:        194 PREFETCH ISSUED TO LOWER LEVEL:     143752  ACCURACY: 0.134955
L2C TIMELY PREFETCHES:        194 LATE PREFETCHES: 100 DROPPED PREFETCHES: 0
L2C PREFETCHES SAME FILL-ORIGIN LEVEL: 119605 DIFFERENT FILL-ORIGIN LEVEL: 0
L2C AVERAGE MISS LATENCY: 227.221 cycles
L2C RQ	ACCESS:      98533	FORWARD:          0	MERGED:          0	TO_CACHE:      98533
L2C WQ	ACCESS:      88519	FORWARD:          0	MERGED:          0	TO_CACHE:      88519
L2C PQ	ACCESS:     739331	FORWARD:          0	MERGED:      47494	TO_CACHE:     691837

L2C_Dead_block_count 94380 198
L2C_inaccurate_prefetch_count 143238 514
Interactions: positive negative neutral
L2C_interactions 631 2393 196582
L2C_positive 260 153 218
L2C_negative 399 292 1702
L2C_neutral 13 12 56448 55497 84595 17
L2C Instructions Evicting Data 175
L2C Translations Evicting Data 892
L2C Data Evicting Data 236140
L2C Instructions Evicting Instructions 0
L2C Translations Evicting Instructions 4
L2C Data Evicting Instructions 125
L2C Instructions Evicting Translations 2
L2C Translations Evicting Translations 3
L2C Data Evicting Translations 903
L2C Dense regions hint from L2: 0
PSCL5 TOTAL     ACCESS:       4560  HIT:       4560  MISS:          0  HIT %:        100  MISS %:          0   MPKI: 0
PSCL5 LOAD TRANSLATION ACCESS:       4559  HIT:       4559  MISS:          0  HIT %:        100  MISS %:          0   MPKI: 0
PSCL5 TRANSLATION FROM L1D PREFETCHER ACCESS:          1  HIT:          1  MISS:          0  HIT %:        100  MISS %:          0   MPKI: 0
PSCL5 PREFETCH  REQUESTED:          0  ISSUED:          0  USEFUL:          0  USELESS:          0
PSCL5 USEFUL LOAD PREFETCHES:          0 PREFETCH ISSUED TO LOWER LEVEL:          0  ACCURACY: -nan
PSCL5 TIMELY PREFETCHES:          0 LATE PREFETCHES: 0 DROPPED PREFETCHES: 0
PSCL5 PREFETCHES SAME FILL-ORIGIN LEVEL: 0 DIFFERENT FILL-ORIGIN LEVEL: 0

PSCL5_Dead_block_count 0 0
PSCL5_inaccurate_prefetch_count 0 0
Interactions: positive negative neutral
PSCL5_interactions 0 0 0
PSCL5_positive 0 0 0
PSCL5_negative 0 0 0
PSCL5_neutral 0 0 0 0 0 0
PSCL4 TOTAL     ACCESS:       4560  HIT:       4560  MISS:          0  HIT %:        100  MISS %:          0   MPKI: 0
PSCL4 LOAD TRANSLATION ACCESS:       4559  HIT:       4559  MISS:          0  HIT %:        100  MISS %:          0   MPKI: 0
PSCL4 TRANSLATION FROM L1D PREFETCHER ACCESS:          1  HIT:          1  MISS:          0  HIT %:        100  MISS %:          0   MPKI: 0
PSCL4 PREFETCH  REQUESTED:          0  ISSUED:          0  USEFUL:          0  USELESS:          0
PSCL4 USEFUL LOAD PREFETCHES:          0 PREFETCH ISSUED TO LOWER LEVEL:          0  ACCURACY: -nan
PSCL4 TIMELY PREFETCHES:          0 LATE PREFETCHES: 0 DROPPED PREFETCHES: 0
PSCL4 PREFETCHES SAME FILL-ORIGIN LEVEL: 0 DIFFERENT FILL-ORIGIN LEVEL: 0

PSCL4_Dead_block_count 0 0
PSCL4_inaccurate_prefetch_count 0 0
Interactions: positive negative neutral
PSCL4_interactions 0 0 0
PSCL4_positive 0 0 0
PSCL4_negative 0 0 0
PSCL4_neutral 0 0 0 0 0 0
PSCL3 TOTAL     ACCESS:       4560  HIT:       4558  MISS:          2  HIT %:    99.9561  MISS %:  0.0438596   MPKI: 4e-05
PSCL3 LOAD TRANSLATION ACCESS:       4559  HIT:       4557  MISS:          2  HIT %:    99.9561  MISS %:  0.0438693   MPKI: 4e-05
PSCL3 TRANSLATION FROM L1D PREFETCHER ACCESS:          1  HIT:          1  MISS:          0  HIT %:        100  MISS %:          0   MPKI: 0
PSCL3 PREFETCH  REQUESTED:          0  ISSUED:          0  USEFUL:          0  USELESS:          0
PSCL3 USEFUL LOAD PREFETCHES:          0 PREFETCH ISSUED TO LOWER LEVEL:          0  ACCURACY: -nan
PSCL3 TIMELY PREFETCHES:          0 LATE PREFETCHES: 0 DROPPED PREFETCHES: 0
PSCL3 PREFETCHES SAME FILL-ORIGIN LEVEL: 0 DIFFERENT FILL-ORIGIN LEVEL: 0

PSCL3_Dead_block_count 0 0
PSCL3_inaccurate_prefetch_count 0 0
Interactions: positive negative neutral
PSCL3_interactions 0 0 0
PSCL3_positive 0 0 0
PSCL3_negative 0 0 0
PSCL3_neutral 0 0 0 0 0 0
PSCL2 TOTAL     ACCESS:       4560  HIT:       4545  MISS:         15  HIT %:    99.6711  MISS %:   0.328947   MPKI: 0.0003
PSCL2 LOAD TRANSLATION ACCESS:       4559  HIT:       4544  MISS:         15  HIT %:     99.671  MISS %:    0.32902   MPKI: 0.0003
PSCL2 TRANSLATION FROM L1D PREFETCHER ACCESS:          1  HIT:          1  MISS:          0  HIT %:        100  MISS %:          0   MPKI: 0
PSCL2 PREFETCH  REQUESTED:          0  ISSUED:          0  USEFUL:          0  USELESS:          0
PSCL2 USEFUL LOAD PREFETCHES:          0 PREFETCH ISSUED TO LOWER LEVEL:          0  ACCURACY: -nan
PSCL2 TIMELY PREFETCHES:          0 LATE PREFETCHES: 0 DROPPED PREFETCHES: 0
PSCL2 PREFETCHES SAME FILL-ORIGIN LEVEL: 0 DIFFERENT FILL-ORIGIN LEVEL: 0

PSCL2_Dead_block_count 0 0
PSCL2_inaccurate_prefetch_count 0 0
Interactions: positive negative neutral
PSCL2_interactions 0 0 0
PSCL2_positive 0 0 0
PSCL2_negative 0 0 0
PSCL2_neutral 0 0 0 0 0 0
LLC TOTAL     ACCESS:     327649  HIT:      89184  MISS:     238465  HIT %:    27.2194  MISS %:    72.7806   MPKI: 4.7693
LLC LOAD      ACCESS:       5208  HIT:          3  MISS:       5205  HIT %:  0.0576037  MISS %:    99.9424   MPKI: 0.1041
LLC RFO       ACCESS:      88470  HIT:          1  MISS:      88469  HIT %: 0.00113033  MISS %:    99.9989   MPKI: 1.76938
LLC PREFETCH  ACCESS:     143752  HIT:         55  MISS:     143697  HIT %:  0.0382603  MISS %:    99.9617   MPKI: 2.87394
LLC WRITEBACK ACCESS:      89319  HIT:      89119  MISS:        200  HIT %:    99.7761  MISS %:   0.223917   MPKI: 0.004
LLC LOAD TRANSLATION ACCESS:        900  HIT:          6  MISS:        894  HIT %:   0.666667  MISS %:    99.3333   MPKI: 0.01788
LLC PREFETCH  REQUESTED:          0  ISSUED:          0  USEFUL:          2  USELESS:     130366
LLC USEFUL LOAD PREFETCHES:          2 PREFETCH ISSUED TO LOWER LEVEL:     143697  ACCURACY: 0.00139182
LLC TIMELY PREFETCHES:          2 LATE PREFETCHES: 0 DROPPED PREFETCHES: 0
LLC PREFETCHES SAME FILL-ORIGIN LEVEL: 0 DIFFERENT FILL-ORIGIN LEVEL: 0
LLC AVERAGE MISS LATENCY: 196.297 cycles
LLC RQ	ACCESS:      94578	FORWARD:          0	MERGED:          0	TO_CACHE:      94578
LLC WQ	ACCESS:      89319	FORWARD:          0	MERGED:          0	TO_CACHE:      89319
LLC PQ	ACCESS:     143752	FORWARD:          0	MERGED:          0	TO_CACHE:     143752

LLC_Dead_block_count 94554 14
LLC_inaccurate_prefetch_count 135756 7941
Interactions: positive negative neutral
LLC_interactions 1 16939 178945
LLC_positive 1 0 0
LLC_negative 12399 1820 2720
LLC_neutral 143 0 53091 50368 75343 0
LLC Dense regions hint to LLC: 0

RAW hits: 1383388
Loads Generated: 11567078
Loads sent to L1D: 10183689
Stores Generated: 5563751
Stores sent to L1D: 5563751
Major fault: 0 Minor fault: 4303
Allocated PAGES: 4303

stream: 
stream:times selected: 1110116
stream:pref_filled: 138711
stream:pref_useful: 128038
stream:pref_late: 2912
stream:misses: 44
stream:misses_by_poll: 0

CS: 
CS:times selected: 237243
CS:pref_filled: 4985
CS:pref_useful: 4874
CS:pref_late: 11
CS:misses: 21981
CS:misses_by_poll: 10

CPLX: 
CPLX:times selected: 872783
CPLX:pref_filled: 268
CPLX:pref_useful: 17
CPLX:pref_late: 22
CPLX:misses: 798
CPLX:misses_by_poll: 3

NL_L1: 
NL:times selected: 10
NL:pref_filled: 3
NL:pref_useful: 3
NL:pref_late: 0
NL:misses: 1
NL:misses_by_poll: 0

total selections: 2220152
total_filled: 136599
total_useful: 126032
total_late: 2945
total_polluted: 13
total_misses_after_warmup: 22607
conflicts: 389
Degree Incremented Times: 190090
Degree Decremented Times: 0

L1 IP Table Write Accesses: 7203504
L1 IP Table Read Accesses: 7203115
L1 RST Write Accesses: 889551
L1 RST Read Accesses: 1779102
L1 CSPT Write Accesses: 889551
L1 CSPT Read Accesses: 2855123
L1 RR Filter Tag Write Accesses: 1301652
L1 RR Filter Tag Read Accesses: 156644336
L1 IP Table Tag Write Accesses: 7551812
L1 IP Table Tag Read Accesses: 7551812
L1 RST Tag Write Accesses: 0
L1 RST Tag Read Accesses: 9042325
L1 RR Filter Write Accesses: 0
L1 RR Filter Read Accesses: 7214703
test: 469904
L2 IP Table Read Accesses: 218999
L2 IP Table Write Accesses: 213836
L2 IP Table Tag Read Accesses: 109545
L2 IP Table Tag Write Accesses: 109545

DRAM Statistics
 CHANNEL 0
 RQ ROW_BUFFER_HIT:      82187  ROW_BUFFER_MISS:     156078
 DBUS_CONGESTED:        133
 WQ ROW_BUFFER_HIT:      13064  ROW_BUFFER_MISS:      69568  FULL:          0

 AVG_CONGESTED_CYCLE: 5
 All warmup complete: 2
Channel 0 Bank busy for read cycles: 0
Channel 0 Bank busy for write cycles: 0
Channel 0
Rank 0
0banks busy for read cycles: 73059773
0banks busy for write cycles: 9649
1banks busy for read cycles: 5586524
1banks busy for write cycles: 1494761
2banks busy for read cycles: 2088982
2banks busy for write cycles: 65090
3banks busy for read cycles: 875046
3banks busy for write cycles: 26351
4banks busy for read cycles: 496767
4banks busy for write cycles: 24198
5banks busy for read cycles: 303613
5banks busy for write cycles: 23714
6banks busy for read cycles: 401383
6banks busy for write cycles: 25104
7banks busy for read cycles: 604944
7banks busy for write cycles: 117229
8banks busy for read cycles: 721397
8banks busy for write cycles: 1599425

CPU 0 Branch Prediction Accuracy: 99.9515% MPKI: 0.04976 Average ROB Occupancy at Mispredict: 19.2596
Branch types
NOT_BRANCH: 44864579 89.7292%
BRANCH_DIRECT_JUMP: 347719 0.695438%
BRANCH_INDIRECT: 16 3.2e-05%
BRANCH_CONDITIONAL: 3397101 6.7942%
BRANCH_DIRECT_CALL: 695131 1.39026%
BRANCH_INDIRECT_CALL: 0 0%
BRANCH_RETURN: 695133 1.39027%
BRANCH_OTHER: 0 0%

@sumon_overall_L1D    126032     11625     11625     10582    136599   2602212   2602757
@Sumon_Early_by_class_L1D    121839      4175        17         0
@Sumon_Late_by_class_L1D      2911         9        22         0

@Sumon_Early_by_cycle_L1D      5264      7865     13305     40768     29296      8004       339       380      4478     16303         2        28
@Sumon_Late_by_cycle_L1D       542       533       297       572       938        60
@Sumon_Early_stream_L1D      5221      7832     13264     40699     28278      7999       337       345      1537     16301         2        24
@Sumon_Early_CS_L1D        37        32        39        68      1018         4         1        35      2941         0         0         0
@Sumon_Early_CPLX_L1D         6         1         2         0         0         1         1         0         0         2         0         4
@Sumon_Late_stream_L1D       540       529       293       568       922        59
@Sumon_Late_CS_L1D         2         3         3         0         1         0
@Sumon_Late_CPLX_L1D         0         1         1         4        15         1
@sumon_overall_L2C       194       100         0    142632    143652    602732    602732
@Sumon_Early_by_class_L2C       168        18         5         0
@Sumon_Late_by_class_L2C        96         2         0         0

@Sumon_Early_by_cycle_L2C         3         4         4         7         5        11        19         6         9       108         0        18
@Sumon_Late_by_cycle_L2C         0         1         0         9        85         5
@Sumon_Early_stream_L2C         3         4         4         6         2         8        19         6         0       103         0        13
@Sumon_Early_CS_L2C         0         0         0         1         3         2         0         0         7         5         0         0
@Sumon_Early_CPLX_L2C         0         0         0         0         0         0         0         0         0         0         0         5
@Sumon_Late_stream_L2C         0         0         0         7        84         5
@Sumon_Late_CS_L2C         0         0         0         1         1         0
@Sumon_Late_CPLX_L2C         0         0         0         0         0         0
DRAM PAGES: 1048576
Allocated PAGES: 4303
