
*** ChampSim Multicore Out-of-Order Simulator ***

Warmup Instructions: 10000000
Simulation Instructions: 50000000
Number of CPUs: 1
LLC sets: 2048
LLC ways: 16
Off-chip DRAM Size: 4096 MB Channels: 1 Width: 64-bit Data Rate: 6400 MT/s
CPU 0 runs traces/SPEC2017/654.roms_s-293B.champsimtrace.xz
.xz
CPU 0 Bimodal branch predictor
BTB has LRU replacement policy
ITLB has LRU replacement policy
DTLB has LRU replacement policy
STLB has LRU replacement policy
L1I has LRU replacement policy
IP Table Entries: 256
L1D has LRU replacement policy
IP_Table L2 entries: 256
L2C has LRU replacement policy
LLC has LRU replacement policy
Heartbeat CPU 0 instructions: 10000001 cycles: 3119060 heartbeat IPC: 3.20609 cumulative IPC: 3.20609 (Simulation time: 0 hr 11 min 17 sec) 

Warmup complete CPU 0 instructions: 10000001 cycles: 3119060 (Simulation time: 0 hr 11 min 17 sec) 

Heartbeat CPU 0 instructions: 20000003 cycles: 12928530 heartbeat IPC: 1.01942 cumulative IPC: 1.01942 (Simulation time: 0 hr 20 min 38 sec) 
Heartbeat CPU 0 instructions: 30000000 cycles: 22422791 heartbeat IPC: 1.05327 cumulative IPC: 1.03607 (Simulation time: 0 hr 29 min 53 sec) 
Heartbeat CPU 0 instructions: 40000003 cycles: 32236552 heartbeat IPC: 1.01898 cumulative IPC: 1.03031 (Simulation time: 0 hr 39 min 16 sec) 
Heartbeat CPU 0 instructions: 50000000 cycles: 41737392 heartbeat IPC: 1.05254 cumulative IPC: 1.03578 (Simulation time: 0 hr 48 min 21 sec) 
Heartbeat CPU 0 instructions: 60000002 cycles: 51552636 heartbeat IPC: 1.01882 cumulative IPC: 1.03234 (Simulation time: 0 hr 56 min 24 sec) 
Finished CPU 0 instructions: 50000001 cycles: 48433576 cumulative IPC: 1.03234 (Simulation time: 0 hr 56 min 24 sec) 

ChampSim completed all CPUs

Region of Interest Statistics

CPU 0 cumulative IPC: 1.03234 instructions: 50000001 cycles: 48433576
ITLB TOTAL     ACCESS:    7041992  HIT:    7041992  MISS:          0  HIT %:        100  MISS %:          0   MPKI: 0
ITLB LOAD TRANSLATION ACCESS:    7041992  HIT:    7041992  MISS:          0  HIT %:        100  MISS %:          0   MPKI: 0
ITLB PREFETCH  REQUESTED:          0  ISSUED:          0  USEFUL:          0  USELESS:          0
ITLB USEFUL LOAD PREFETCHES:          0 PREFETCH ISSUED TO LOWER LEVEL:          0  ACCURACY: -nan
ITLB TIMELY PREFETCHES:          0 LATE PREFETCHES: 0 DROPPED PREFETCHES: 0
ITLB PREFETCHES SAME FILL-ORIGIN LEVEL: 0 DIFFERENT FILL-ORIGIN LEVEL: 0
ITLB AVERAGE MISS LATENCY: -nan cycles
ITLB RQ	ACCESS:    8964924	FORWARD:          0	MERGED:    1922932	TO_CACHE:    7041992

ITLB_Dead_block_count 0 0
ITLB_inaccurate_prefetch_count 0 0
Interactions: positive negative neutral
ITLB_interactions 0 0 0
ITLB_positive 0 0 0
ITLB_negative 0 0 0
ITLB_neutral 0 0 0 0 0 0
DTLB TOTAL     ACCESS:   13473256  HIT:   13458207  MISS:      15049  HIT %:    99.8883  MISS %:   0.111695   MPKI: 0.30098
DTLB LOAD TRANSLATION ACCESS:   13473256  HIT:   13458207  MISS:      15049  HIT %:    99.8883  MISS %:   0.111695   MPKI: 0.30098
DTLB PREFETCH  REQUESTED:          0  ISSUED:          0  USEFUL:          0  USELESS:          0
DTLB USEFUL LOAD PREFETCHES:          0 PREFETCH ISSUED TO LOWER LEVEL:          0  ACCURACY: -nan
DTLB TIMELY PREFETCHES:          0 LATE PREFETCHES: 0 DROPPED PREFETCHES: 0
DTLB PREFETCHES SAME FILL-ORIGIN LEVEL: 0 DIFFERENT FILL-ORIGIN LEVEL: 0
DTLB AVERAGE MISS LATENCY: 152.425 cycles
DTLB RQ	ACCESS:   15534651	FORWARD:          0	MERGED:    2028994	TO_CACHE:   13505657

DTLB_Dead_block_count 15045 4
DTLB_inaccurate_prefetch_count 0 0
Interactions: positive negative neutral
DTLB_interactions 0 0 0
DTLB_positive 0 0 0
DTLB_negative 0 0 0
DTLB_neutral 0 0 0 0 0 0
STLB TOTAL     ACCESS:     418259  HIT:     413219  MISS:       5040  HIT %:     98.795  MISS %:    1.20499   MPKI: 0.1008
STLB LOAD TRANSLATION ACCESS:      15049  HIT:      10009  MISS:       5040  HIT %:    66.5094  MISS %:    33.4906   MPKI: 0.1008
STLB TRANSLATION FROM L1D PREFETCHER ACCESS:     403210  HIT:     403210  MISS:          0  HIT %:        100  MISS %:          0   MPKI: 0
STLB PREFETCH  REQUESTED:          0  ISSUED:          0  USEFUL:          0  USELESS:          0
STLB USEFUL LOAD PREFETCHES:          0 PREFETCH ISSUED TO LOWER LEVEL:          0  ACCURACY: -nan
STLB TIMELY PREFETCHES:          0 LATE PREFETCHES: 0 DROPPED PREFETCHES: 0
STLB PREFETCHES SAME FILL-ORIGIN LEVEL: 0 DIFFERENT FILL-ORIGIN LEVEL: 0
STLB AVERAGE MISS LATENCY: 426.774 cycles
STLB RQ	ACCESS:    1494204	FORWARD:          0	MERGED:    1075945	TO_CACHE:     418259

STLB_Dead_block_count 5036 4
STLB_inaccurate_prefetch_count 0 0
Interactions: positive negative neutral
STLB_interactions 0 0 0
STLB_positive 0 0 0
STLB_negative 0 0 0
STLB_neutral 0 0 0 0 0 0
STLB Hit, L1D data hit: 0
STLB Hit, L2C data hit: 0
STLB Hit, LLC data hit: 0
STLB Hit, LLC data miss: 0
STLB STLB hints to L2: 0
L1D TOTAL     ACCESS:   16572936  HIT:   15944390  MISS:     628546  HIT %:    96.2074  MISS %:    3.79261   MPKI: 12.5709
L1D LOAD      ACCESS:   10902811  HIT:   10889503  MISS:      13308  HIT %:    99.8779  MISS %:    0.12206   MPKI: 0.26616
L1D RFO       ACCESS:    4192551  HIT:    3960423  MISS:     232128  HIT %:    94.4633  MISS %:    5.53668   MPKI: 4.64256
L1D PREFETCH  ACCESS:    1477574  HIT:    1094464  MISS:     383110  HIT %:    74.0717  MISS %:    25.9283   MPKI: 7.6622
L1D PREFETCH  REQUESTED:    2973329  ISSUED:    2958315  USEFUL:     369947  USELESS:      13146
L1D USEFUL LOAD PREFETCHES:     369947 PREFETCH ISSUED TO LOWER LEVEL:     386232  ACCURACY: 95.7836
L1D TIMELY PREFETCHES:     369947 LATE PREFETCHES: 947 DROPPED PREFETCHES: 0
L1D PREFETCHES SAME FILL-ORIGIN LEVEL: 386232 DIFFERENT FILL-ORIGIN LEVEL: 0
L1D AVERAGE MISS LATENCY: 96.3683 cycles
L1D RQ	ACCESS:   16819223	FORWARD:          0	MERGED:    5765907	TO_CACHE:   10910679
L1D WQ	ACCESS:    4623972	FORWARD:     142637	MERGED:          0	TO_CACHE:    4623972
L1D PQ	ACCESS:    1479160	FORWARD:          0	MERGED:          5	TO_CACHE:    1479155

L1D_Dead_block_count 188 13120
L1D_inaccurate_prefetch_count 0 383110
Interactions: positive negative neutral
L1D_interactions 1986 1 385127
L1D_positive 1986 0 0
L1D_negative 0 1 0
L1D_neutral 371982 4003 0 0 0 9142
L1D UNIQUE REGIONS ACCESSED: 0
L1D REGIONS CONFLICTS: 0
L1D Cross Page Prefetch Requests: 0
L1D Same Page Prefetch Requests: 1671428
L1D ROI Sum of L1D PQ occupancy: 21304421
L1D PREFETCHES PUSHED FROM L2C: 0
L1I TOTAL     ACCESS:    8964922  HIT:    8964922  MISS:          0  HIT %:        100  MISS %:          0   MPKI: 0
L1I LOAD      ACCESS:    8964922  HIT:    8964922  MISS:          0  HIT %:        100  MISS %:          0   MPKI: 0
L1I PREFETCH  REQUESTED:          0  ISSUED:          0  USEFUL:          0  USELESS:          0
L1I USEFUL LOAD PREFETCHES:          0 PREFETCH ISSUED TO LOWER LEVEL:          0  ACCURACY: -nan
L1I TIMELY PREFETCHES:          0 LATE PREFETCHES: 0 DROPPED PREFETCHES: 0
L1I PREFETCHES SAME FILL-ORIGIN LEVEL: 0 DIFFERENT FILL-ORIGIN LEVEL: 0
L1I AVERAGE MISS LATENCY: -nan cycles
L1I RQ	ACCESS:   11481926	FORWARD:          0	MERGED:    2517002	TO_CACHE:    8964924

L1I_Dead_block_count 0 0
L1I_inaccurate_prefetch_count 0 0
Interactions: positive negative neutral
L1I_interactions 0 0 0
L1I_positive 0 0 0
L1I_negative 0 0 0
L1I_neutral 0 0 0 0 0 0
BTB TOTAL     ACCESS:     648184  HIT:     648169  MISS:         15  HIT %:    99.9977  MISS %: 0.00231416   MPKI: 0.0003
BTB BRANCH_DIRECT_JUMP	ACCESS:          8  HIT:          7  MISS:          1
BTB BRANCH_INDIRECT	ACCESS:          0  HIT:          0  MISS:          0
BTB BRANCH_CONDITIONAL	ACCESS:     648176  HIT:     648162  MISS:         14
BTB BRANCH_DIRECT_CALL	ACCESS:          0  HIT:          0  MISS:          0
BTB BRANCH_INDIRECT_CALL	ACCESS:          0  HIT:          0  MISS:          0
BTB BRANCH_RETURN	ACCESS:          0  HIT:          0  MISS:          0
BTB BRANCH_OTHER ACCESS:          0  HIT:          0  MISS:          0

L2C TOTAL     ACCESS:    2678668  HIT:    2142218  MISS:     536450  HIT %:    79.9733  MISS %:    20.0267   MPKI: 10.729
L2C LOAD      ACCESS:      13308  HIT:       6228  MISS:       7080  HIT %:    46.7989  MISS %:    53.2011   MPKI: 0.1416
L2C DATA LOAD MPKI: 0.1416
L2C INSTRUCTION LOAD MPKI: 0
L2C RFO       ACCESS:     232128  HIT:        379  MISS:     231749  HIT %:   0.163272  MISS %:    99.8367   MPKI: 4.63498
L2C PREFETCH  ACCESS:    2174474  HIT:    1881278  MISS:     293196  HIT %:    86.5165  MISS %:    13.4835   MPKI: 5.86392
L2C DATA PREFETCH MPKI: 5.86392
L2C INSTRUCTION PREFETCH MPKI: 0
L2C WRITEBACK ACCESS:     251140  HIT:     250835  MISS:        305  HIT %:    99.8786  MISS %:   0.121446   MPKI: 0.0061
L2C LOAD TRANSLATION ACCESS:       7618  HIT:       3498  MISS:       4120  HIT %:    45.9176  MISS %:    54.0824   MPKI: 0.0824
L2C PREFETCH  REQUESTED:    1950220  ISSUED:    1925632  USEFUL:        982  USELESS:     291152
L2C USEFUL LOAD PREFETCHES:        982 PREFETCH ISSUED TO LOWER LEVEL:     293226  ACCURACY: 0.334895
L2C TIMELY PREFETCHES:        982 LATE PREFETCHES: 30 DROPPED PREFETCHES: 0
L2C PREFETCHES SAME FILL-ORIGIN LEVEL: 251384 DIFFERENT FILL-ORIGIN LEVEL: 0
L2C AVERAGE MISS LATENCY: 167.228 cycles
L2C RQ	ACCESS:     253056	FORWARD:          0	MERGED:          0	TO_CACHE:     253056
L2C WQ	ACCESS:     251140	FORWARD:          0	MERGED:          0	TO_CACHE:     251140
L2C PQ	ACCESS:    2308742	FORWARD:          0	MERGED:      95832	TO_CACHE:    2212910

L2C_Dead_block_count 236472 6449
L2C_inaccurate_prefetch_count 290338 2888
Interactions: positive negative neutral
L2C_interactions 5382 5175 394059
L2C_positive 1339 2522 1521
L2C_negative 2585 681 1909
L2C_neutral 10 39 109743 108178 176073 16
L2C Instructions Evicting Data 0
L2C Translations Evicting Data 4093
L2C Data Evicting Data 527983
L2C Instructions Evicting Instructions 0
L2C Translations Evicting Instructions 0
L2C Data Evicting Instructions 0
L2C Instructions Evicting Translations 0
L2C Translations Evicting Translations 27
L2C Data Evicting Translations 4042
L2C Dense regions hint from L2: 0
PSCL5 TOTAL     ACCESS:       5040  HIT:       5040  MISS:          0  HIT %:        100  MISS %:          0   MPKI: 0
PSCL5 LOAD TRANSLATION ACCESS:       5040  HIT:       5040  MISS:          0  HIT %:        100  MISS %:          0   MPKI: 0
PSCL5 PREFETCH  REQUESTED:          0  ISSUED:          0  USEFUL:          0  USELESS:          0
PSCL5 USEFUL LOAD PREFETCHES:          0 PREFETCH ISSUED TO LOWER LEVEL:          0  ACCURACY: -nan
PSCL5 TIMELY PREFETCHES:          0 LATE PREFETCHES: 0 DROPPED PREFETCHES: 0
PSCL5 PREFETCHES SAME FILL-ORIGIN LEVEL: 0 DIFFERENT FILL-ORIGIN LEVEL: 0

PSCL5_Dead_block_count 0 0
PSCL5_inaccurate_prefetch_count 0 0
Interactions: positive negative neutral
PSCL5_interactions 0 0 0
PSCL5_positive 0 0 0
PSCL5_negative 0 0 0
PSCL5_neutral 0 0 0 0 0 0
PSCL4 TOTAL     ACCESS:       5040  HIT:       5040  MISS:          0  HIT %:        100  MISS %:          0   MPKI: 0
PSCL4 LOAD TRANSLATION ACCESS:       5040  HIT:       5040  MISS:          0  HIT %:        100  MISS %:          0   MPKI: 0
PSCL4 PREFETCH  REQUESTED:          0  ISSUED:          0  USEFUL:          0  USELESS:          0
PSCL4 USEFUL LOAD PREFETCHES:          0 PREFETCH ISSUED TO LOWER LEVEL:          0  ACCURACY: -nan
PSCL4 TIMELY PREFETCHES:          0 LATE PREFETCHES: 0 DROPPED PREFETCHES: 0
PSCL4 PREFETCHES SAME FILL-ORIGIN LEVEL: 0 DIFFERENT FILL-ORIGIN LEVEL: 0

PSCL4_Dead_block_count 0 0
PSCL4_inaccurate_prefetch_count 0 0
Interactions: positive negative neutral
PSCL4_interactions 0 0 0
PSCL4_positive 0 0 0
PSCL4_negative 0 0 0
PSCL4_neutral 0 0 0 0 0 0
PSCL3 TOTAL     ACCESS:       5031  HIT:       4954  MISS:         77  HIT %:    98.4695  MISS %:    1.53051   MPKI: 0.00154
PSCL3 LOAD TRANSLATION ACCESS:       5031  HIT:       4954  MISS:         77  HIT %:    98.4695  MISS %:    1.53051   MPKI: 0.00154
PSCL3 PREFETCH  REQUESTED:          0  ISSUED:          0  USEFUL:          0  USELESS:          0
PSCL3 USEFUL LOAD PREFETCHES:          0 PREFETCH ISSUED TO LOWER LEVEL:          0  ACCURACY: -nan
PSCL3 TIMELY PREFETCHES:          0 LATE PREFETCHES: 0 DROPPED PREFETCHES: 0
PSCL3 PREFETCHES SAME FILL-ORIGIN LEVEL: 0 DIFFERENT FILL-ORIGIN LEVEL: 0

PSCL3_Dead_block_count 0 0
PSCL3_inaccurate_prefetch_count 0 0
Interactions: positive negative neutral
PSCL3_interactions 0 0 0
PSCL3_positive 0 0 0
PSCL3_negative 0 0 0
PSCL3_neutral 0 0 0 0 0 0
PSCL2 TOTAL     ACCESS:       5040  HIT:       2517  MISS:       2523  HIT %:    49.9405  MISS %:    50.0595   MPKI: 0.05046
PSCL2 LOAD TRANSLATION ACCESS:       5040  HIT:       2517  MISS:       2523  HIT %:    49.9405  MISS %:    50.0595   MPKI: 0.05046
PSCL2 PREFETCH  REQUESTED:          0  ISSUED:          0  USEFUL:          0  USELESS:          0
PSCL2 USEFUL LOAD PREFETCHES:          0 PREFETCH ISSUED TO LOWER LEVEL:          0  ACCURACY: -nan
PSCL2 TIMELY PREFETCHES:          0 LATE PREFETCHES: 0 DROPPED PREFETCHES: 0
PSCL2 PREFETCHES SAME FILL-ORIGIN LEVEL: 0 DIFFERENT FILL-ORIGIN LEVEL: 0

PSCL2_Dead_block_count 0 0
PSCL2_inaccurate_prefetch_count 0 0
Interactions: positive negative neutral
PSCL2_interactions 0 0 0
PSCL2_positive 0 0 0
PSCL2_negative 0 0 0
PSCL2_neutral 0 0 0 0 0 0
LLC TOTAL     ACCESS:     788072  HIT:     417876  MISS:     370196  HIT %:    53.0251  MISS %:    46.9749   MPKI: 7.40392
LLC LOAD      ACCESS:       7050  HIT:       2480  MISS:       4570  HIT %:    35.1773  MISS %:    64.8227   MPKI: 0.0914
LLC RFO       ACCESS:     231749  HIT:      36445  MISS:     195304  HIT %:    15.7261  MISS %:    84.2739   MPKI: 3.90608
LLC PREFETCH  ACCESS:     293226  HIT:     126995  MISS:     166231  HIT %:    43.3096  MISS %:    56.6904   MPKI: 3.32462
LLC WRITEBACK ACCESS:     251927  HIT:     251882  MISS:         45  HIT %:    99.9821  MISS %:  0.0178623   MPKI: 0.0009
LLC LOAD TRANSLATION ACCESS:       4120  HIT:         74  MISS:       4046  HIT %:    1.79612  MISS %:    98.2039   MPKI: 0.08092
LLC PREFETCH  REQUESTED:          0  ISSUED:          0  USEFUL:      12128  USELESS:     149449
LLC USEFUL LOAD PREFETCHES:      12128 PREFETCH ISSUED TO LOWER LEVEL:     166231  ACCURACY: 7.29587
LLC TIMELY PREFETCHES:      12128 LATE PREFETCHES: 0 DROPPED PREFETCHES: 0
LLC PREFETCHES SAME FILL-ORIGIN LEVEL: 0 DIFFERENT FILL-ORIGIN LEVEL: 0
LLC AVERAGE MISS LATENCY: 197.881 cycles
LLC RQ	ACCESS:     242921	FORWARD:          0	MERGED:          0	TO_CACHE:     242921
LLC WQ	ACCESS:     251927	FORWARD:          0	MERGED:          0	TO_CACHE:     251927
LLC PQ	ACCESS:     293226	FORWARD:          0	MERGED:          0	TO_CACHE:     293226

LLC_Dead_block_count 165250 38672
LLC_inaccurate_prefetch_count 159807 6424
Interactions: positive negative neutral
LLC_interactions 304 1653 249648
LLC_positive 68 136 100
LLC_negative 1303 85 265
LLC_neutral 1 0 100809 85153 63685 0
LLC Dense regions hint to LLC: 0

RAW hits: 562653
Loads Generated: 17381878
Loads sent to L1D: 16819223
Stores Generated: 4623969
Stores sent to L1D: 4623972
Major fault: 0 Minor fault: 6614
Allocated PAGES: 6614

stream: 
stream:times selected: 510017
stream:pref_filled: 438203
stream:pref_useful: 423119
stream:pref_late: 321
stream:misses: 14
stream:misses_by_poll: 0

CS: 
CS:times selected: 500402
CS:pref_filled: 236
CS:pref_useful: 233
CS:pref_late: 2
CS:misses: 16974
CS:misses_by_poll: 1

CPLX: 
CPLX:times selected: 9545
CPLX:pref_filled: 183
CPLX:pref_useful: 37
CPLX:pref_late: 0
CPLX:misses: 214
CPLX:misses_by_poll: 0

NL_L1: 
NL:times selected: 8
NL:pref_filled: 3
NL:pref_useful: 3
NL:pref_late: 0
NL:misses: 0
NL:misses_by_poll: 0

total selections: 1019972
total_filled: 383110
total_useful: 369947
total_late: 334
total_polluted: 1
total_misses_after_warmup: 21177
conflicts: 33306
Degree Incremented Times: 50998
Degree Decremented Times: 0

L1 IP Table Write Accesses: 10243922
L1 IP Table Read Accesses: 10210616
L1 RST Write Accesses: 447190
L1 RST Read Accesses: 894380
L1 CSPT Write Accesses: 447190
L1 CSPT Read Accesses: 473350
L1 RR Filter Tag Write Accesses: 1494174
L1 RR Filter Tag Read Accesses: 100641507
L1 IP Table Tag Write Accesses: 10910680
L1 IP Table Tag Read Accesses: 10910680
L1 RST Tag Write Accesses: 0
L1 RST Tag Read Accesses: 3848067
L1 RR Filter Write Accesses: 0
L1 RR Filter Read Accesses: 3821420
test: 11112
L2 IP Table Read Accesses: 699941
L2 IP Table Write Accesses: 687224
L2 IP Table Tag Read Accesses: 350191
L2 IP Table Tag Write Accesses: 350191

DRAM Statistics
 CHANNEL 0
 RQ ROW_BUFFER_HIT:      56386  ROW_BUFFER_MISS:     313633
 DBUS_CONGESTED:        121
 WQ ROW_BUFFER_HIT:      47973  ROW_BUFFER_MISS:     175736  FULL:          0

 AVG_CONGESTED_CYCLE: 5
 All warmup complete: 2
Channel 0 Bank busy for read cycles: 0
Channel 0 Bank busy for write cycles: 0
Channel 0
Rank 0
0banks busy for read cycles: 9573166
0banks busy for write cycles: 45046
1banks busy for read cycles: 12237459
1banks busy for write cycles: 5083200
2banks busy for read cycles: 8821945
2banks busy for write cycles: 2992027
3banks busy for read cycles: 2298842
3banks busy for write cycles: 1149720
4banks busy for read cycles: 732607
4banks busy for write cycles: 580473
5banks busy for read cycles: 416287
5banks busy for write cycles: 311046
6banks busy for read cycles: 286388
6banks busy for write cycles: 216889
7banks busy for read cycles: 656219
7banks busy for write cycles: 395796
8banks busy for read cycles: 300438
8banks busy for write cycles: 2336029

CPU 0 Branch Prediction Accuracy: 99.7993% MPKI: 0.02604 Average ROB Occupancy at Mispredict: 50.182
Branch types
NOT_BRANCH: 49351064 98.7021%
BRANCH_DIRECT_JUMP: 8 1.6e-05%
BRANCH_INDIRECT: 0 0%
BRANCH_CONDITIONAL: 648608 1.29722%
BRANCH_DIRECT_CALL: 0 0%
BRANCH_INDIRECT_CALL: 0 0%
BRANCH_RETURN: 0 0%
BRANCH_OTHER: 0 0%

@sumon_overall_L1D    369947       947       947     13146    383110   2958315   2973329
@Sumon_Early_by_class_L1D    369733       166        34         0
@Sumon_Late_by_class_L1D       305         1         0         0

@Sumon_Early_by_cycle_L1D      1904      3196      7255     11993     65797    193821     18514      5857     61582        28         0         0
@Sumon_Late_by_cycle_L1D        33       130        46        29        66        13
@Sumon_Early_stream_L1D      1898      3180      7216     11981     65779    193772     18490      5816     61575        26         0         0
@Sumon_Early_CS_L1D         1         9        36         6        10        44        20        40         0         0         0         0
@Sumon_Early_CPLX_L1D         0         1         1         6         8         5         4         1         7         1         0         0
@Sumon_Late_stream_L1D        32       126        46        26        64        11
@Sumon_Late_CS_L1D         0         1         0         0         0         0
@Sumon_Late_CPLX_L1D         0         0         0         0         0         0
@sumon_overall_L2C       982        30         0    291152    293196   1925632   1950220
@Sumon_Early_by_class_L2C       927         0         0         0
@Sumon_Late_by_class_L2C        20         0         0         0

@Sumon_Early_by_cycle_L2C        50        33        85       156        50       140        18         0         4        74         0       372
@Sumon_Late_by_cycle_L2C         0         2         1         3        17         7
@Sumon_Early_stream_L2C        48        31        79       151        43       131        12         0         3        66         0       363
@Sumon_Early_CS_L2C         0         0         0         0         0         0         0         0         0         0         0         0
@Sumon_Early_CPLX_L2C         0         0         0         0         0         0         0         0         0         0         0         0
@Sumon_Late_stream_L2C         0         2         0         3        15         0
@Sumon_Late_CS_L2C         0         0         0         0         0         0
@Sumon_Late_CPLX_L2C         0         0         0         0         0         0
DRAM PAGES: 1048576
Allocated PAGES: 6614
