
*** ChampSim Multicore Out-of-Order Simulator ***

Warmup Instructions: 10000000
Simulation Instructions: 50000000
Number of CPUs: 1
LLC sets: 2048
LLC ways: 16
Off-chip DRAM Size: 4096 MB Channels: 1 Width: 64-bit Data Rate: 6400 MT/s
CPU 0 runs traces/clientserver/client_003.champsimtrace.xz
.xz
CPU 0 Bimodal branch predictor
BTB has LRU replacement policy
ITLB has LRU replacement policy
DTLB has LRU replacement policy
STLB has LRU replacement policy
L1I has LRU replacement policy
IP Table Entries: 256
Initialize SRRIP state for L1D
IP_Table L2 entries: 256
Initialize SRRIP state for L2C
Initialize SRRIP state
Heartbeat CPU 0 instructions: 10000000 cycles: 2803571 heartbeat IPC: 3.56688 cumulative IPC: 3.56688 (Simulation time: 0 hr 9 min 46 sec) 

Warmup complete CPU 0 instructions: 10000004 cycles: 2803572 (Simulation time: 0 hr 9 min 46 sec) 

Heartbeat CPU 0 instructions: 20000000 cycles: 21043775 heartbeat IPC: 0.548239 cumulative IPC: 0.548239 (Simulation time: 0 hr 17 min 48 sec) 
Heartbeat CPU 0 instructions: 30000000 cycles: 36229193 heartbeat IPC: 0.658526 cumulative IPC: 0.598343 (Simulation time: 0 hr 25 min 58 sec) 
Heartbeat CPU 0 instructions: 40000000 cycles: 50897066 heartbeat IPC: 0.681762 cumulative IPC: 0.623785 (Simulation time: 0 hr 34 min 29 sec) 
Heartbeat CPU 0 instructions: 50000003 cycles: 65110182 heartbeat IPC: 0.703576 cumulative IPC: 0.641986 (Simulation time: 0 hr 42 min 45 sec) 
Heartbeat CPU 0 instructions: 60000002 cycles: 79839313 heartbeat IPC: 0.678927 cumulative IPC: 0.649049 (Simulation time: 0 hr 50 min 39 sec) 
Finished CPU 0 instructions: 50000001 cycles: 77035743 cumulative IPC: 0.649049 (Simulation time: 0 hr 50 min 39 sec) 

ChampSim completed all CPUs

Region of Interest Statistics

CPU 0 cumulative IPC: 0.649049 instructions: 50000001 cycles: 77035743
ITLB TOTAL     ACCESS:    8475561  HIT:    8404163  MISS:      71398  HIT %:    99.1576  MISS %:   0.842399   MPKI: 1.42796
ITLB LOAD TRANSLATION ACCESS:    8475561  HIT:    8404163  MISS:      71398  HIT %:    99.1576  MISS %:   0.842399   MPKI: 1.42796
ITLB PREFETCH  REQUESTED:          0  ISSUED:          0  USEFUL:          0  USELESS:          0
ITLB USEFUL LOAD PREFETCHES:          0 PREFETCH ISSUED TO LOWER LEVEL:          0  ACCURACY: -nan
ITLB TIMELY PREFETCHES:          0 LATE PREFETCHES: 0 DROPPED PREFETCHES: 0
ITLB PREFETCHES SAME FILL-ORIGIN LEVEL: 0 DIFFERENT FILL-ORIGIN LEVEL: 0
ITLB AVERAGE MISS LATENCY: 10.1079 cycles
ITLB RQ	ACCESS:   10053185	FORWARD:          0	MERGED:    1557345	TO_CACHE:    8495840

DTLB TOTAL     ACCESS:   11005680  HIT:   10885452  MISS:     120228  HIT %:    98.9076  MISS %:    1.09242   MPKI: 2.40456
DTLB LOAD TRANSLATION ACCESS:   11005680  HIT:   10885452  MISS:     120228  HIT %:    98.9076  MISS %:    1.09242   MPKI: 2.40456
DTLB PREFETCH  REQUESTED:          0  ISSUED:          0  USEFUL:          0  USELESS:          0
DTLB USEFUL LOAD PREFETCHES:          0 PREFETCH ISSUED TO LOWER LEVEL:          0  ACCURACY: -nan
DTLB TIMELY PREFETCHES:          0 LATE PREFETCHES: 0 DROPPED PREFETCHES: 0
DTLB PREFETCHES SAME FILL-ORIGIN LEVEL: 0 DIFFERENT FILL-ORIGIN LEVEL: 0
DTLB AVERAGE MISS LATENCY: 10.4374 cycles
DTLB RQ	ACCESS:   15123328	FORWARD:          0	MERGED:    4109147	TO_CACHE:   11014181

STLB TOTAL     ACCESS:     490395  HIT:     488622  MISS:       1773  HIT %:    99.6385  MISS %:   0.361545   MPKI: 0.03546
STLB LOAD TRANSLATION ACCESS:     191626  HIT:     189853  MISS:       1773  HIT %:    99.0748  MISS %:    0.92524   MPKI: 0.03546
STLB TRANSLATION FROM L1D PREFETCHER ACCESS:     298769  HIT:     298769  MISS:          0  HIT %:        100  MISS %:          0   MPKI: 0
STLB PREFETCH  REQUESTED:          0  ISSUED:          0  USEFUL:          0  USELESS:          0
STLB USEFUL LOAD PREFETCHES:          0 PREFETCH ISSUED TO LOWER LEVEL:          0  ACCURACY: -nan
STLB TIMELY PREFETCHES:          0 LATE PREFETCHES: 0 DROPPED PREFETCHES: 0
STLB PREFETCHES SAME FILL-ORIGIN LEVEL: 0 DIFFERENT FILL-ORIGIN LEVEL: 0
STLB AVERAGE MISS LATENCY: 139.425 cycles
STLB RQ	ACCESS:     565095	FORWARD:          0	MERGED:      74700	TO_CACHE:     490395

STLB Hit, L1D data hit: 0
STLB Hit, L2C data hit: 0
STLB Hit, LLC data hit: 0
STLB Hit, LLC data miss: 0
STLB STLB hints to L2: 0
L1D TOTAL     ACCESS:   15154774  HIT:   14808579  MISS:     346195  HIT %:    97.7156  MISS %:     2.2844   MPKI: 6.9239
L1D LOAD      ACCESS:    7434891  HIT:    7314257  MISS:     120634  HIT %:    98.3775  MISS %:    1.62254   MPKI: 2.41268
L1D RFO       ACCESS:    7352836  HIT:    7199852  MISS:     152984  HIT %:    97.9194  MISS %:    2.08061   MPKI: 3.05968
L1D PREFETCH  ACCESS:     367047  HIT:     294470  MISS:      72577  HIT %:    80.2268  MISS %:    19.7732   MPKI: 1.45154
L1D PREFETCH  REQUESTED:     747604  ISSUED:     747604  USEFUL:      19331  USELESS:      53237
L1D USEFUL LOAD PREFETCHES:      19331 PREFETCH ISSUED TO LOWER LEVEL:      75038  ACCURACY: 25.7616
L1D TIMELY PREFETCHES:      19331 LATE PREFETCHES: 2322 DROPPED PREFETCHES: 0
L1D PREFETCHES SAME FILL-ORIGIN LEVEL: 75038 DIFFERENT FILL-ORIGIN LEVEL: 0
L1D AVERAGE MISS LATENCY: 325415 cycles
L1D RQ	ACCESS:   12012983	FORWARD:          0	MERGED:    4401705	TO_CACHE:    7447061
L1D WQ	ACCESS:    7811254	FORWARD:     164883	MERGED:     134987	TO_CACHE:    7676267
L1D PQ	ACCESS:     374135	FORWARD:          0	MERGED:          0	TO_CACHE:     373469

L1D UNIQUE REGIONS ACCESSED: 0
L1D REGIONS CONFLICTS: 0
L1D Cross Page Prefetch Requests: 0
L1D Same Page Prefetch Requests: 445045
L1D ROI Sum of L1D PQ occupancy: 4822783
L1D PREFETCHES PUSHED FROM L2C: 0
L1I TOTAL     ACCESS:    9925397  HIT:    9390282  MISS:     535115  HIT %:    94.6086  MISS %:    5.39137   MPKI: 10.7023
L1I LOAD      ACCESS:    9925397  HIT:    9390282  MISS:     535115  HIT %:    94.6086  MISS %:    5.39137   MPKI: 10.7023
L1I PREFETCH  REQUESTED:          0  ISSUED:          0  USEFUL:          0  USELESS:          0
L1I USEFUL LOAD PREFETCHES:          0 PREFETCH ISSUED TO LOWER LEVEL:          0  ACCURACY: -nan
L1I TIMELY PREFETCHES:          0 LATE PREFETCHES: 0 DROPPED PREFETCHES: 0
L1I PREFETCHES SAME FILL-ORIGIN LEVEL: 0 DIFFERENT FILL-ORIGIN LEVEL: 0
L1I AVERAGE MISS LATENCY: 24.8426 cycles
L1I RQ	ACCESS:   14768251	FORWARD:          0	MERGED:    4715066	TO_CACHE:   10053185

BTB TOTAL     ACCESS:    6766808  HIT:    6169221  MISS:     597587  HIT %:    91.1688  MISS %:    8.83115   MPKI: 11.9517
BTB BRANCH_DIRECT_JUMP	ACCESS:     494781  HIT:     477302  MISS:      17479
BTB BRANCH_INDIRECT	ACCESS:     114379  HIT:      50385  MISS:      63994
BTB BRANCH_CONDITIONAL	ACCESS:    3862756  HIT:    3810705  MISS:      52051
BTB BRANCH_DIRECT_CALL	ACCESS:     995377  HIT:     956807  MISS:      38570
BTB BRANCH_INDIRECT_CALL	ACCESS:     151743  HIT:     115162  MISS:      36581
BTB BRANCH_RETURN	ACCESS:    1147772  HIT:     758860  MISS:     388912
BTB BRANCH_OTHER ACCESS:          0  HIT:          0  MISS:          0

L2C TOTAL     ACCESS:    1130211  HIT:     847994  MISS:     282217  HIT %:    75.0297  MISS %:    24.9703   MPKI: 5.64434
L2C LOAD      ACCESS:     653424  HIT:     537760  MISS:     115664  HIT %:    82.2988  MISS %:    17.7012   MPKI: 2.31328
L2C DATA LOAD MPKI: 0.7357
L2C INSTRUCTION LOAD MPKI: 1.57758
L2C RFO       ACCESS:     152841  HIT:      42084  MISS:     110757  HIT %:    27.5345  MISS %:    72.4655   MPKI: 2.21514
L2C PREFETCH  ACCESS:     136923  HIT:      89675  MISS:      47248  HIT %:     65.493  MISS %:     34.507   MPKI: 0.94496
L2C DATA PREFETCH MPKI: 0.94496
L2C INSTRUCTION PREFETCH MPKI: 0
L2C WRITEBACK ACCESS:     185182  HIT:     177648  MISS:       7534  HIT %:    95.9316  MISS %:    4.06843   MPKI: 0.15068
L2C LOAD TRANSLATION ACCESS:       1841  HIT:        827  MISS:       1014  HIT %:    44.9212  MISS %:    55.0788   MPKI: 0.02028
L2C PREFETCH  REQUESTED:      64083  ISSUED:      64083  USEFUL:       8578  USELESS:      38637
L2C USEFUL LOAD PREFETCHES:       8578 PREFETCH ISSUED TO LOWER LEVEL:      47567  ACCURACY: 18.0335
L2C TIMELY PREFETCHES:       8578 LATE PREFETCHES: 319 DROPPED PREFETCHES: 0
L2C PREFETCHES SAME FILL-ORIGIN LEVEL: 15437 DIFFERENT FILL-ORIGIN LEVEL: 0
L2C AVERAGE MISS LATENCY: 75.0723 cycles
L2C RQ	ACCESS:     808113	FORWARD:          0	MERGED:          0	TO_CACHE:     808106
L2C WQ	ACCESS:     185182	FORWARD:          7	MERGED:          0	TO_CACHE:     185182
L2C PQ	ACCESS:     139121	FORWARD:          0	MERGED:       1274	TO_CACHE:     137847

L2C Instructions Evicting Data 49920
L2C Translations Evicting Data 675
L2C Data Evicting Data 145111
L2C Instructions Evicting Instructions 28614
L2C Translations Evicting Instructions 338
L2C Data Evicting Instructions 48990
L2C Instructions Evicting Translations 345
L2C Translations Evicting Translations 1
L2C Data Evicting Translations 689
L2C Dense regions hint from L2: 0
PSCL5 TOTAL     ACCESS:       1773  HIT:       1773  MISS:          0  HIT %:        100  MISS %:          0   MPKI: 0
PSCL5 LOAD TRANSLATION ACCESS:       1773  HIT:       1773  MISS:          0  HIT %:        100  MISS %:          0   MPKI: 0
PSCL5 PREFETCH  REQUESTED:          0  ISSUED:          0  USEFUL:          0  USELESS:          0
PSCL5 USEFUL LOAD PREFETCHES:          0 PREFETCH ISSUED TO LOWER LEVEL:          0  ACCURACY: -nan
PSCL5 TIMELY PREFETCHES:          0 LATE PREFETCHES: 0 DROPPED PREFETCHES: 0
PSCL5 PREFETCHES SAME FILL-ORIGIN LEVEL: 0 DIFFERENT FILL-ORIGIN LEVEL: 0

PSCL4 TOTAL     ACCESS:       1773  HIT:       1773  MISS:          0  HIT %:        100  MISS %:          0   MPKI: 0
PSCL4 LOAD TRANSLATION ACCESS:       1773  HIT:       1773  MISS:          0  HIT %:        100  MISS %:          0   MPKI: 0
PSCL4 PREFETCH  REQUESTED:          0  ISSUED:          0  USEFUL:          0  USELESS:          0
PSCL4 USEFUL LOAD PREFETCHES:          0 PREFETCH ISSUED TO LOWER LEVEL:          0  ACCURACY: -nan
PSCL4 TIMELY PREFETCHES:          0 LATE PREFETCHES: 0 DROPPED PREFETCHES: 0
PSCL4 PREFETCHES SAME FILL-ORIGIN LEVEL: 0 DIFFERENT FILL-ORIGIN LEVEL: 0

PSCL3 TOTAL     ACCESS:       1771  HIT:       1771  MISS:          0  HIT %:        100  MISS %:          0   MPKI: 0
PSCL3 LOAD TRANSLATION ACCESS:       1771  HIT:       1771  MISS:          0  HIT %:        100  MISS %:          0   MPKI: 0
PSCL3 PREFETCH  REQUESTED:          0  ISSUED:          0  USEFUL:          0  USELESS:          0
PSCL3 USEFUL LOAD PREFETCHES:          0 PREFETCH ISSUED TO LOWER LEVEL:          0  ACCURACY: -nan
PSCL3 TIMELY PREFETCHES:          0 LATE PREFETCHES: 0 DROPPED PREFETCHES: 0
PSCL3 PREFETCHES SAME FILL-ORIGIN LEVEL: 0 DIFFERENT FILL-ORIGIN LEVEL: 0

PSCL2 TOTAL     ACCESS:       1773  HIT:       1702  MISS:         71  HIT %:    95.9955  MISS %:    4.00451   MPKI: 0.00142
PSCL2 LOAD TRANSLATION ACCESS:       1773  HIT:       1702  MISS:         71  HIT %:    95.9955  MISS %:    4.00451   MPKI: 0.00142
PSCL2 PREFETCH  REQUESTED:          0  ISSUED:          0  USEFUL:          0  USELESS:          0
PSCL2 USEFUL LOAD PREFETCHES:          0 PREFETCH ISSUED TO LOWER LEVEL:          0  ACCURACY: -nan
PSCL2 TIMELY PREFETCHES:          0 LATE PREFETCHES: 0 DROPPED PREFETCHES: 0
PSCL2 PREFETCHES SAME FILL-ORIGIN LEVEL: 0 DIFFERENT FILL-ORIGIN LEVEL: 0

LLC TOTAL     ACCESS:     402650  HIT:     300872  MISS:     101778  HIT %:     74.723  MISS %:     25.277   MPKI: 2.03556
LLC LOAD      ACCESS:     115444  HIT:      87804  MISS:      27640  HIT %:    76.0577  MISS %:    23.9423   MPKI: 0.5528
LLC RFO       ACCESS:     110658  HIT:      59541  MISS:      51117  HIT %:    53.8063  MISS %:    46.1937   MPKI: 1.02234
LLC PREFETCH  ACCESS:      47567  HIT:      34511  MISS:      13056  HIT %:    72.5524  MISS %:    27.4476   MPKI: 0.26112
LLC WRITEBACK ACCESS:     127967  HIT:     118581  MISS:       9386  HIT %:    92.6653  MISS %:     7.3347   MPKI: 0.18772
LLC LOAD TRANSLATION ACCESS:       1014  HIT:        435  MISS:        579  HIT %:    42.8994  MISS %:    57.1006   MPKI: 0.01158
LLC PREFETCH  REQUESTED:          0  ISSUED:          0  USEFUL:       2346  USELESS:      10537
LLC USEFUL LOAD PREFETCHES:       2346 PREFETCH ISSUED TO LOWER LEVEL:      13056  ACCURACY: 17.9688
LLC TIMELY PREFETCHES:       2346 LATE PREFETCHES: 0 DROPPED PREFETCHES: 0
LLC PREFETCHES SAME FILL-ORIGIN LEVEL: 0 DIFFERENT FILL-ORIGIN LEVEL: 0
LLC AVERAGE MISS LATENCY: 127.136 cycles
LLC RQ	ACCESS:     227116	FORWARD:          0	MERGED:          0	TO_CACHE:     227116
LLC WQ	ACCESS:     127967	FORWARD:          0	MERGED:          0	TO_CACHE:     127967
LLC PQ	ACCESS:      47567	FORWARD:          0	MERGED:          0	TO_CACHE:      47567

LLC Dense regions hint to LLC: 0

RAW hits: 1561873
Loads Generated: 13574857
Loads sent to L1D: 12012983
Stores Generated: 7811247
Stores sent to L1D: 7811254
Major fault: 0 Minor fault: 2338
Allocated PAGES: 2338

stream: 
stream:times selected: 675602
stream:pref_filled: 51846
stream:pref_useful: 12209
stream:pref_late: 1177
stream:misses: 5838
stream:misses_by_poll: 0

CS: 
CS:times selected: 49930
CS:pref_filled: 15080
CS:pref_useful: 9151
CS:pref_late: 944
CS:misses: 4219
CS:misses_by_poll: 6

CPLX: 
CPLX:times selected: 623119
CPLX:pref_filled: 21566
CPLX:pref_useful: 2761
CPLX:pref_late: 93
CPLX:misses: 29677
CPLX:misses_by_poll: 21

NL_L1: 
NL:times selected: 6407
NL:pref_filled: 612
NL:pref_useful: 153
NL:pref_late: 18
NL:misses: 334
NL:misses_by_poll: 0

total selections: 1355058
total_filled: 72577
total_useful: 19331
total_late: 2457
total_polluted: 27
total_misses_after_warmup: 132802
conflicts: 2433256
Degree Incremented Times: 0
Degree Decremented Times: 68289

L1 IP Table Write Accesses: 4573726
L1 IP Table Read Accesses: 2140470
L1 RST Write Accesses: 575022
L1 RST Read Accesses: 1150044
L1 CSPT Write Accesses: 575022
L1 CSPT Read Accesses: 1108987
L1 RR Filter Tag Write Accesses: 374135
L1 RR Filter Tag Read Accesses: 21817074
L1 IP Table Tag Write Accesses: 7447059
L1 IP Table Tag Read Accesses: 7447059
L1 RST Tag Write Accesses: 0
L1 RST Tag Read Accesses: 5317220
L1 RR Filter Write Accesses: 0
L1 RR Filter Read Accesses: 833421
test: 181617
L2 IP Table Read Accesses: 319147
L2 IP Table Write Accesses: 304803
L2 IP Table Tag Read Accesses: 192215
L2 IP Table Tag Write Accesses: 192215

DRAM Statistics
 CHANNEL 0
 RQ ROW_BUFFER_HIT:      32653  ROW_BUFFER_MISS:      59739
 DBUS_CONGESTED:         72
 WQ ROW_BUFFER_HIT:       9583  ROW_BUFFER_MISS:      47190  FULL:          0

 AVG_CONGESTED_CYCLE: 3
 All warmup complete: 2
Channel 0 Bank busy for read cycles: 0
Channel 0 Bank busy for write cycles: 0
Channel 0
Rank 0
0banks busy for read cycles: 64847843
0banks busy for write cycles: 22804
1banks busy for read cycles: 5376967
1banks busy for write cycles: 3124383
2banks busy for read cycles: 1141390
2banks busy for write cycles: 918811
3banks busy for read cycles: 223712
3banks busy for write cycles: 362699
4banks busy for read cycles: 96351
4banks busy for write cycles: 187375
5banks busy for read cycles: 56654
5banks busy for write cycles: 121563
6banks busy for read cycles: 60278
6banks busy for write cycles: 88416
7banks busy for read cycles: 60409
7banks busy for write cycles: 87835
8banks busy for read cycles: 101322
8banks busy for write cycles: 156932

CPU 0 Branch Prediction Accuracy: 95.2436% MPKI: 8.774 Average ROB Occupancy at Mispredict: 37.8848
Branch types
NOT_BRANCH: 40776380 81.5528%
BRANCH_DIRECT_JUMP: 494781 0.989562%
BRANCH_INDIRECT: 114379 0.228758%
BRANCH_CONDITIONAL: 6319235 12.6385%
BRANCH_DIRECT_CALL: 995377 1.99075%
BRANCH_INDIRECT_CALL: 151743 0.303486%
BRANCH_RETURN: 1147772 2.29554%
BRANCH_OTHER: 0 0%

@sumon_overall_L1D     19331      2322     53237     72577    747604    747604
@Sumon_Early_by_class_L1D      9909      6653      2309        16
@Sumon_Late_by_class_L1D      1083       927        84        16

@Sumon_Early_by_cycle_L1D      3639      2143      1367       730       624      3060      2880      1357      1015      1126       774       616
@Sumon_Late_by_cycle_L1D      1769       552         1         0         0         0         0         0         0         0         0         0
@Sumon_Early_stream_L1D      2447      1135       763       457       437      1374       830       640       516       631       344       335
@Sumon_Early_CS_L1D       770       826       442       164       114      1406      1797       418       201       141       236       138
@Sumon_Early_CPLX_L1D       277       143       139        94        61       240       213       256       258       314       179       135
@Sumon_Late_stream_L1D       697       385         1         0         0         0         0         0         0         0         0         0
@Sumon_Late_CS_L1D       798       129         0         0         0         0         0         0         0         0         0         0
@Sumon_Late_CPLX_L1D        61        23         0         0         0         0         0         0         0         0         0         0
@sumon_overall_L2C      8578       319     38637     47248     64083     64083
@Sumon_Early_by_class_L2C      2275      1436       971         0
@Sumon_Late_by_class_L2C         0         0         0         0

@Sumon_Early_by_cycle_L2C       388       195       193       129        82       361       231       260       250       342       565      5582
@Sumon_Late_by_cycle_L2C       195       123         1         0         0         0         0         0         0         0         0         0
@Sumon_Early_stream_L2C         0         0         0         0         0         2         1         5        16        60       149      2042
@Sumon_Early_CS_L2C         0         0         0         0         0         1         2         2         5         9       140      1277
@Sumon_Early_CPLX_L2C         0         0         0         0         0         0         1         4        10        28        76       852
@Sumon_Late_stream_L2C         0         0         0         0         0         0         0         0         0         0         0         0
@Sumon_Late_CS_L2C         0         0         0         0         0         0         0         0         0         0         0         0
@Sumon_Late_CPLX_L2C         0         0         0         0         0         0         0         0         0         0         0         0
DRAM PAGES: 1048576
Allocated PAGES: 2338
