
*** ChampSim Multicore Out-of-Order Simulator ***

Warmup Instructions: 10000000
Simulation Instructions: 50000000
Number of CPUs: 1
LLC sets: 2048
LLC ways: 16
Off-chip DRAM Size: 4096 MB Channels: 1 Width: 64-bit Data Rate: 6400 MT/s
CPU 0 runs traces/clientserver/server_037.champsimtrace.xz
.xz
CPU 0 Bimodal branch predictor
BTB has LRU replacement policy
ITLB has LRU replacement policy
DTLB has LRU replacement policy
STLB has LRU replacement policy
L1I has LRU replacement policy
IP Table Entries: 256
Initialize SRRIP state for L1D
IP_Table L2 entries: 256
Initialize SRRIP state for L2C
Initialize SRRIP state
Heartbeat CPU 0 instructions: 10000000 cycles: 2752181 heartbeat IPC: 3.63348 cumulative IPC: 3.63348 (Simulation time: 0 hr 9 min 51 sec) 

Warmup complete CPU 0 instructions: 10000004 cycles: 2752182 (Simulation time: 0 hr 9 min 51 sec) 

Heartbeat CPU 0 instructions: 20000001 cycles: 20747269 heartbeat IPC: 0.555707 cumulative IPC: 0.555707 (Simulation time: 0 hr 17 min 47 sec) 
Heartbeat CPU 0 instructions: 30000000 cycles: 38436484 heartbeat IPC: 0.565316 cumulative IPC: 0.56047 (Simulation time: 0 hr 25 min 31 sec) 
Heartbeat CPU 0 instructions: 40000000 cycles: 56386862 heartbeat IPC: 0.557091 cumulative IPC: 0.55934 (Simulation time: 0 hr 33 min 23 sec) 
Heartbeat CPU 0 instructions: 50000000 cycles: 74240958 heartbeat IPC: 0.560096 cumulative IPC: 0.559528 (Simulation time: 0 hr 41 min 18 sec) 
Heartbeat CPU 0 instructions: 60000001 cycles: 92116474 heartbeat IPC: 0.559424 cumulative IPC: 0.559508 (Simulation time: 0 hr 49 min 1 sec) 
Finished CPU 0 instructions: 50000001 cycles: 89364299 cumulative IPC: 0.559508 (Simulation time: 0 hr 49 min 1 sec) 

ChampSim completed all CPUs

Region of Interest Statistics

CPU 0 cumulative IPC: 0.559508 instructions: 50000001 cycles: 89364299
ITLB TOTAL     ACCESS:    8848327  HIT:    8221360  MISS:     626967  HIT %:    92.9143  MISS %:    7.08571   MPKI: 12.5393
ITLB LOAD TRANSLATION ACCESS:    8848327  HIT:    8221360  MISS:     626967  HIT %:    92.9143  MISS %:    7.08571   MPKI: 12.5393
ITLB PREFETCH  REQUESTED:          0  ISSUED:          0  USEFUL:          0  USELESS:          0
ITLB USEFUL LOAD PREFETCHES:          0 PREFETCH ISSUED TO LOWER LEVEL:          0  ACCURACY: -nan
ITLB TIMELY PREFETCHES:          0 LATE PREFETCHES: 0 DROPPED PREFETCHES: 0
ITLB PREFETCHES SAME FILL-ORIGIN LEVEL: 0 DIFFERENT FILL-ORIGIN LEVEL: 0
ITLB AVERAGE MISS LATENCY: 9.05288 cycles
ITLB RQ	ACCESS:   10657727	FORWARD:          0	MERGED:    1615040	TO_CACHE:    9042687

DTLB TOTAL     ACCESS:   10862491  HIT:   10340475  MISS:     522016  HIT %:    95.1943  MISS %:    4.80567   MPKI: 10.4403
DTLB LOAD TRANSLATION ACCESS:   10862491  HIT:   10340475  MISS:     522016  HIT %:    95.1943  MISS %:    4.80567   MPKI: 10.4403
DTLB PREFETCH  REQUESTED:          0  ISSUED:          0  USEFUL:          0  USELESS:          0
DTLB USEFUL LOAD PREFETCHES:          0 PREFETCH ISSUED TO LOWER LEVEL:          0  ACCURACY: -nan
DTLB TIMELY PREFETCHES:          0 LATE PREFETCHES: 0 DROPPED PREFETCHES: 0
DTLB PREFETCHES SAME FILL-ORIGIN LEVEL: 0 DIFFERENT FILL-ORIGIN LEVEL: 0
DTLB AVERAGE MISS LATENCY: 10.2314 cycles
DTLB RQ	ACCESS:   14434284	FORWARD:          0	MERGED:    3533585	TO_CACHE:   10900699

STLB TOTAL     ACCESS:    1268075  HIT:    1262242  MISS:       5833  HIT %:      99.54  MISS %:   0.459989   MPKI: 0.11666
STLB LOAD TRANSLATION ACCESS:    1148983  HIT:    1143150  MISS:       5833  HIT %:    99.4923  MISS %:   0.507666   MPKI: 0.11666
STLB TRANSLATION FROM L1D PREFETCHER ACCESS:     119092  HIT:     119092  MISS:          0  HIT %:        100  MISS %:          0   MPKI: 0
STLB PREFETCH  REQUESTED:          0  ISSUED:          0  USEFUL:          0  USELESS:          0
STLB USEFUL LOAD PREFETCHES:          0 PREFETCH ISSUED TO LOWER LEVEL:          0  ACCURACY: -nan
STLB TIMELY PREFETCHES:          0 LATE PREFETCHES: 0 DROPPED PREFETCHES: 0
STLB PREFETCHES SAME FILL-ORIGIN LEVEL: 0 DIFFERENT FILL-ORIGIN LEVEL: 0
STLB AVERAGE MISS LATENCY: 112.679 cycles
STLB RQ	ACCESS:    1356462	FORWARD:          0	MERGED:      88387	TO_CACHE:    1268075

STLB Hit, L1D data hit: 0
STLB Hit, L2C data hit: 0
STLB Hit, LLC data hit: 0
STLB Hit, LLC data miss: 0
STLB STLB hints to L2: 0
L1D TOTAL     ACCESS:   14543866  HIT:   14057087  MISS:     486779  HIT %:     96.653  MISS %:    3.34697   MPKI: 9.73558
L1D LOAD      ACCESS:    8072701  HIT:    7709251  MISS:     363450  HIT %:    95.4978  MISS %:    4.50221   MPKI: 7.269
L1D RFO       ACCESS:    6271016  HIT:    6207721  MISS:      63295  HIT %:    98.9907  MISS %:    1.00933   MPKI: 1.2659
L1D PREFETCH  ACCESS:     200149  HIT:     140115  MISS:      60034  HIT %:    70.0053  MISS %:    29.9947   MPKI: 1.20068
L1D PREFETCH  REQUESTED:     415051  ISSUED:     414989  USEFUL:      15713  USELESS:      44330
L1D USEFUL LOAD PREFETCHES:      15713 PREFETCH ISSUED TO LOWER LEVEL:      60728  ACCURACY: 25.8744
L1D TIMELY PREFETCHES:      15713 LATE PREFETCHES: 685 DROPPED PREFETCHES: 0
L1D PREFETCHES SAME FILL-ORIGIN LEVEL: 60728 DIFFERENT FILL-ORIGIN LEVEL: 0
L1D AVERAGE MISS LATENCY: 64399.1 cycles
L1D RQ	ACCESS:   11771581	FORWARD:          0	MERGED:    3511513	TO_CACHE:    8091804
L1D WQ	ACCESS:    6389167	FORWARD:     168295	MERGED:      46687	TO_CACHE:    6342480
L1D PQ	ACCESS:     207510	FORWARD:          0	MERGED:          0	TO_CACHE:     207479

L1D UNIQUE REGIONS ACCESSED: 0
L1D REGIONS CONFLICTS: 0
L1D Cross Page Prefetch Requests: 0
L1D Same Page Prefetch Requests: 243444
L1D ROI Sum of L1D PQ occupancy: 2693928
L1D PREFETCHES PUSHED FROM L2C: 0
L1I TOTAL     ACCESS:    9639805  HIT:    5643297  MISS:    3996508  HIT %:    58.5416  MISS %:    41.4584   MPKI: 79.9302
L1I LOAD      ACCESS:    9639805  HIT:    5643297  MISS:    3996508  HIT %:    58.5416  MISS %:    41.4584   MPKI: 79.9302
L1I PREFETCH  REQUESTED:          0  ISSUED:          0  USEFUL:          0  USELESS:          0
L1I USEFUL LOAD PREFETCHES:          0 PREFETCH ISSUED TO LOWER LEVEL:          0  ACCURACY: -nan
L1I TIMELY PREFETCHES:          0 LATE PREFETCHES: 0 DROPPED PREFETCHES: 0
L1I PREFETCHES SAME FILL-ORIGIN LEVEL: 0 DIFFERENT FILL-ORIGIN LEVEL: 0
L1I AVERAGE MISS LATENCY: 14.1849 cycles
L1I RQ	ACCESS:   14763714	FORWARD:          0	MERGED:    4105987	TO_CACHE:   10657727

BTB TOTAL     ACCESS:    5416948  HIT:    4897170  MISS:     519778  HIT %:    90.4046  MISS %:     9.5954   MPKI: 10.3956
BTB BRANCH_DIRECT_JUMP	ACCESS:     540054  HIT:     527588  MISS:      12466
BTB BRANCH_INDIRECT	ACCESS:      59163  HIT:      59065  MISS:         98
BTB BRANCH_CONDITIONAL	ACCESS:    2342991  HIT:    2302512  MISS:      40479
BTB BRANCH_DIRECT_CALL	ACCESS:    1004110  HIT:     967238  MISS:      36872
BTB BRANCH_INDIRECT_CALL	ACCESS:     233270  HIT:     188049  MISS:      45221
BTB BRANCH_RETURN	ACCESS:    1237360  HIT:     852718  MISS:     384642
BTB BRANCH_OTHER ACCESS:          0  HIT:          0  MISS:          0

L2C TOTAL     ACCESS:    4993827  HIT:    4749874  MISS:     243953  HIT %:    95.1149  MISS %:    4.88509   MPKI: 4.87906
L2C LOAD      ACCESS:    4359273  HIT:    4234579  MISS:     124694  HIT %:    97.1396  MISS %:    2.86043   MPKI: 2.49388
L2C DATA LOAD MPKI: 2.30602
L2C INSTRUCTION LOAD MPKI: 0.18786
L2C RFO       ACCESS:      63295  HIT:      37758  MISS:      25537  HIT %:     59.654  MISS %:     40.346   MPKI: 0.51074
L2C PREFETCH  ACCESS:     337088  HIT:     252883  MISS:      84205  HIT %:    75.0199  MISS %:    24.9801   MPKI: 1.6841
L2C DATA PREFETCH MPKI: 1.6841
L2C INSTRUCTION PREFETCH MPKI: 0
L2C WRITEBACK ACCESS:     226090  HIT:     222179  MISS:       3911  HIT %:    98.2702  MISS %:    1.72984   MPKI: 0.07822
L2C LOAD TRANSLATION ACCESS:       8081  HIT:       2475  MISS:       5606  HIT %:    30.6274  MISS %:    69.3726   MPKI: 0.11212
L2C PREFETCH  REQUESTED:     294766  ISSUED:     294766  USEFUL:      24522  USELESS:      59781
L2C USEFUL LOAD PREFETCHES:      24522 PREFETCH ISSUED TO LOWER LEVEL:      84782  ACCURACY: 28.9236
L2C TIMELY PREFETCHES:      24522 LATE PREFETCHES: 577 DROPPED PREFETCHES: 0
L2C PREFETCHES SAME FILL-ORIGIN LEVEL: 68177 DIFFERENT FILL-ORIGIN LEVEL: 0
L2C AVERAGE MISS LATENCY: 48.1071 cycles
L2C RQ	ACCESS:    4430650	FORWARD:          0	MERGED:          0	TO_CACHE:    4430649
L2C WQ	ACCESS:     226090	FORWARD:          5	MERGED:          0	TO_CACHE:     226090
L2C PQ	ACCESS:     355485	FORWARD:          0	MERGED:       7727	TO_CACHE:     347754

L2C Instructions Evicting Data 8701
L2C Translations Evicting Data 5210
L2C Data Evicting Data 211306
L2C Instructions Evicting Instructions 483
L2C Translations Evicting Instructions 196
L2C Data Evicting Instructions 8564
L2C Instructions Evicting Translations 209
L2C Translations Evicting Translations 198
L2C Data Evicting Translations 5156
L2C Dense regions hint from L2: 0
PSCL5 TOTAL     ACCESS:       5833  HIT:       5833  MISS:          0  HIT %:        100  MISS %:          0   MPKI: 0
PSCL5 LOAD TRANSLATION ACCESS:       5833  HIT:       5833  MISS:          0  HIT %:        100  MISS %:          0   MPKI: 0
PSCL5 PREFETCH  REQUESTED:          0  ISSUED:          0  USEFUL:          0  USELESS:          0
PSCL5 USEFUL LOAD PREFETCHES:          0 PREFETCH ISSUED TO LOWER LEVEL:          0  ACCURACY: -nan
PSCL5 TIMELY PREFETCHES:          0 LATE PREFETCHES: 0 DROPPED PREFETCHES: 0
PSCL5 PREFETCHES SAME FILL-ORIGIN LEVEL: 0 DIFFERENT FILL-ORIGIN LEVEL: 0

PSCL4 TOTAL     ACCESS:       5833  HIT:       5833  MISS:          0  HIT %:        100  MISS %:          0   MPKI: 0
PSCL4 LOAD TRANSLATION ACCESS:       5833  HIT:       5833  MISS:          0  HIT %:        100  MISS %:          0   MPKI: 0
PSCL4 PREFETCH  REQUESTED:          0  ISSUED:          0  USEFUL:          0  USELESS:          0
PSCL4 USEFUL LOAD PREFETCHES:          0 PREFETCH ISSUED TO LOWER LEVEL:          0  ACCURACY: -nan
PSCL4 TIMELY PREFETCHES:          0 LATE PREFETCHES: 0 DROPPED PREFETCHES: 0
PSCL4 PREFETCHES SAME FILL-ORIGIN LEVEL: 0 DIFFERENT FILL-ORIGIN LEVEL: 0

PSCL3 TOTAL     ACCESS:       5809  HIT:       5779  MISS:         30  HIT %:    99.4836  MISS %:    0.51644   MPKI: 0.0006
PSCL3 LOAD TRANSLATION ACCESS:       5809  HIT:       5779  MISS:         30  HIT %:    99.4836  MISS %:    0.51644   MPKI: 0.0006
PSCL3 PREFETCH  REQUESTED:          0  ISSUED:          0  USEFUL:          0  USELESS:          0
PSCL3 USEFUL LOAD PREFETCHES:          0 PREFETCH ISSUED TO LOWER LEVEL:          0  ACCURACY: -nan
PSCL3 TIMELY PREFETCHES:          0 LATE PREFETCHES: 0 DROPPED PREFETCHES: 0
PSCL3 PREFETCHES SAME FILL-ORIGIN LEVEL: 0 DIFFERENT FILL-ORIGIN LEVEL: 0

PSCL2 TOTAL     ACCESS:       5833  HIT:       3588  MISS:       2245  HIT %:    61.5121  MISS %:    38.4879   MPKI: 0.0449
PSCL2 LOAD TRANSLATION ACCESS:       5833  HIT:       3588  MISS:       2245  HIT %:    61.5121  MISS %:    38.4879   MPKI: 0.0449
PSCL2 PREFETCH  REQUESTED:          0  ISSUED:          0  USEFUL:          0  USELESS:          0
PSCL2 USEFUL LOAD PREFETCHES:          0 PREFETCH ISSUED TO LOWER LEVEL:          0  ACCURACY: -nan
PSCL2 TIMELY PREFETCHES:          0 LATE PREFETCHES: 0 DROPPED PREFETCHES: 0
PSCL2 PREFETCHES SAME FILL-ORIGIN LEVEL: 0 DIFFERENT FILL-ORIGIN LEVEL: 0

LLC TOTAL     ACCESS:     337348  HIT:     307087  MISS:      30261  HIT %:    91.0297  MISS %:    8.97026   MPKI: 0.60522
LLC LOAD      ACCESS:     124117  HIT:     109360  MISS:      14757  HIT %:    88.1104  MISS %:    11.8896   MPKI: 0.29514
LLC RFO       ACCESS:      25537  HIT:      20159  MISS:       5378  HIT %:    78.9404  MISS %:    21.0596   MPKI: 0.10756
LLC PREFETCH  ACCESS:      84782  HIT:      75400  MISS:       9382  HIT %:     88.934  MISS %:     11.066   MPKI: 0.18764
LLC WRITEBACK ACCESS:      97306  HIT:      97125  MISS:        181  HIT %:     99.814  MISS %:   0.186011   MPKI: 0.00362
LLC LOAD TRANSLATION ACCESS:       5606  HIT:       5043  MISS:        563  HIT %:    89.9572  MISS %:    10.0428   MPKI: 0.01126
LLC PREFETCH  REQUESTED:          0  ISSUED:          0  USEFUL:        457  USELESS:       5621
LLC USEFUL LOAD PREFETCHES:        457 PREFETCH ISSUED TO LOWER LEVEL:       9382  ACCURACY: 4.87103
LLC TIMELY PREFETCHES:        457 LATE PREFETCHES: 0 DROPPED PREFETCHES: 0
LLC PREFETCHES SAME FILL-ORIGIN LEVEL: 0 DIFFERENT FILL-ORIGIN LEVEL: 0
LLC AVERAGE MISS LATENCY: 149.665 cycles
LLC RQ	ACCESS:     155260	FORWARD:          0	MERGED:          0	TO_CACHE:     155260
LLC WQ	ACCESS:      97306	FORWARD:          0	MERGED:          0	TO_CACHE:      97306
LLC PQ	ACCESS:      84782	FORWARD:          0	MERGED:          0	TO_CACHE:      84782

LLC Dense regions hint to LLC: 0

RAW hits: 714958
Loads Generated: 12486539
Loads sent to L1D: 11771581
Stores Generated: 6389161
Stores sent to L1D: 6389167
Major fault: 0 Minor fault: 4736
Allocated PAGES: 4736

stream: 
stream:times selected: 194378
stream:pref_filled: 35115
stream:pref_useful: 9494
stream:pref_late: 238
stream:misses: 422
stream:misses_by_poll: 0

CS: 
CS:times selected: 4708
CS:pref_filled: 1913
CS:pref_useful: 1850
CS:pref_late: 504
CS:misses: 594
CS:misses_by_poll: 0

CPLX: 
CPLX:times selected: 185239
CPLX:pref_filled: 29652
CPLX:pref_useful: 5793
CPLX:pref_late: 122
CPLX:misses: 3960
CPLX:misses_by_poll: 1

NL_L1: 
NL:times selected: 3275
NL:pref_filled: 558
NL:pref_useful: 37
NL:pref_late: 0
NL:misses: 23
NL:misses_by_poll: 0

total selections: 387600
total_filled: 60034
total_useful: 15713
total_late: 969
total_polluted: 1
total_misses_after_warmup: 382551
conflicts: 3701182
Degree Incremented Times: 14
Degree Decremented Times: 136209

L1 IP Table Write Accesses: 4221739
L1 IP Table Read Accesses: 520557
L1 RST Write Accesses: 165197
L1 RST Read Accesses: 330394
L1 CSPT Write Accesses: 165197
L1 CSPT Read Accesses: 324270
L1 RR Filter Tag Write Accesses: 207572
L1 RR Filter Tag Read Accesses: 9077052
L1 IP Table Tag Write Accesses: 8091802
L1 IP Table Tag Read Accesses: 8091802
L1 RST Tag Write Accesses: 0
L1 RST Tag Read Accesses: 1524672
L1 RR Filter Write Accesses: 0
L1 RR Filter Read Accesses: 296384
test: 70152
L2 IP Table Read Accesses: 540275
L2 IP Table Write Accesses: 699761
L2 IP Table Tag Read Accesses: 417275
L2 IP Table Tag Write Accesses: 417275

DRAM Statistics
 CHANNEL 0
 RQ ROW_BUFFER_HIT:       6999  ROW_BUFFER_MISS:      23081
 DBUS_CONGESTED:          7
 WQ ROW_BUFFER_HIT:        219  ROW_BUFFER_MISS:       2493  FULL:          0

 AVG_CONGESTED_CYCLE: 4
 All warmup complete: 2
Channel 0 Bank busy for read cycles: 0
Channel 0 Bank busy for write cycles: 0
Channel 0
Rank 0
0banks busy for read cycles: 86452871
0banks busy for write cycles: 2308
1banks busy for read cycles: 1464378
1banks busy for write cycles: 378443
2banks busy for read cycles: 859621
2banks busy for write cycles: 34919
3banks busy for read cycles: 95913
3banks busy for write cycles: 3736
4banks busy for read cycles: 29994
4banks busy for write cycles: 3204
5banks busy for read cycles: 10821
5banks busy for write cycles: 2141
6banks busy for read cycles: 14981
6banks busy for write cycles: 0
7banks busy for read cycles: 10952
7banks busy for write cycles: 0
8banks busy for read cycles: 18
8banks busy for write cycles: 0

CPU 0 Branch Prediction Accuracy: 96.3938% MPKI: 6.5053 Average ROB Occupancy at Mispredict: 21.2467
Branch types
NOT_BRANCH: 40980221 81.9604%
BRANCH_DIRECT_JUMP: 540054 1.08011%
BRANCH_INDIRECT: 59163 0.118326%
BRANCH_CONDITIONAL: 5945672 11.8913%
BRANCH_DIRECT_CALL: 1004110 2.00822%
BRANCH_INDIRECT_CALL: 233270 0.46654%
BRANCH_RETURN: 1237360 2.47472%
BRANCH_OTHER: 0 0%

@sumon_overall_L1D     15713       685     44330     60034    414989    415051
@Sumon_Early_by_class_L1D      7970      1499      4684         0
@Sumon_Late_by_class_L1D        53       504        30         0

@Sumon_Early_by_cycle_L1D      2023       375        29        27       267      2461      1200      1241      5778      2167       121        24
@Sumon_Late_by_cycle_L1D       587        98         0         0         0         0         0         0         0         0         0         0
@Sumon_Early_stream_L1D       474        42         9        13        20      1296       781       660      3461      1154        52         8
@Sumon_Early_CS_L1D      1325       155         1        11         7         0         0         0         0         0         0         0
@Sumon_Early_CPLX_L1D       154       152        10         1         0       686       311       531      2201       557        65        16
@Sumon_Late_stream_L1D        46         7         0         0         0         0         0         0         0         0         0         0
@Sumon_Late_CS_L1D       415        89         0         0         0         0         0         0         0         0         0         0
@Sumon_Late_CPLX_L1D        30         0         0         0         0         0         0         0         0         0         0         0
@sumon_overall_L2C     24522       577     59781     84205    294766    294766
@Sumon_Early_by_class_L2C       974         0       645         0
@Sumon_Late_by_class_L2C         0         0         0         0

@Sumon_Early_by_cycle_L2C      1484      1962      4422       592      1033      6061      1690       606      1307      3260       181      1924
@Sumon_Late_by_cycle_L2C       533        43         1         0         0         0         0         0         0         0         0         0
@Sumon_Early_stream_L2C         0         0         0         0         0        28        13        48       262        99        31       493
@Sumon_Early_CS_L2C         0         0         0         0         0         0         0         0         0         0         0         0
@Sumon_Early_CPLX_L2C         0         0         0         0         0         3         2        19       118        55        31       417
@Sumon_Late_stream_L2C         0         0         0         0         0         0         0         0         0         0         0         0
@Sumon_Late_CS_L2C         0         0         0         0         0         0         0         0         0         0         0         0
@Sumon_Late_CPLX_L2C         0         0         0         0         0         0         0         0         0         0         0         0
DRAM PAGES: 1048576
Allocated PAGES: 4736
