
*** ChampSim Multicore Out-of-Order Simulator ***

Warmup Instructions: 10000000
Simulation Instructions: 50000000
Number of CPUs: 1
LLC sets: 2048
LLC ways: 16
Off-chip DRAM Size: 4096 MB Channels: 1 Width: 64-bit Data Rate: 6400 MT/s
CPU 0 runs traces/clientserver/server_030.champsimtrace.xz
.xz
CPU 0 Bimodal branch predictor
BTB has LRU replacement policy
ITLB has LRU replacement policy
DTLB has LRU replacement policy
STLB has LRU replacement policy
L1I has LRU replacement policy
IP Table Entries: 256
Initialize SRRIP state for L1D
IP_Table L2 entries: 256
Initialize SRRIP state for L2C
Initialize SRRIP state
Heartbeat CPU 0 instructions: 10000003 cycles: 2893038 heartbeat IPC: 3.45658 cumulative IPC: 3.45658 (Simulation time: 0 hr 10 min 8 sec) 

Warmup complete CPU 0 instructions: 10000003 cycles: 2893038 (Simulation time: 0 hr 10 min 8 sec) 

Heartbeat CPU 0 instructions: 20000002 cycles: 27753126 heartbeat IPC: 0.402251 cumulative IPC: 0.402251 (Simulation time: 0 hr 18 min 39 sec) 
Heartbeat CPU 0 instructions: 30000001 cycles: 52614309 heartbeat IPC: 0.402233 cumulative IPC: 0.402242 (Simulation time: 0 hr 26 min 59 sec) 
Heartbeat CPU 0 instructions: 40000000 cycles: 77353114 heartbeat IPC: 0.404223 cumulative IPC: 0.4029 (Simulation time: 0 hr 35 min 31 sec) 
Heartbeat CPU 0 instructions: 50000001 cycles: 102239263 heartbeat IPC: 0.40183 cumulative IPC: 0.402632 (Simulation time: 0 hr 44 min 3 sec) 
Heartbeat CPU 0 instructions: 60000000 cycles: 127007559 heartbeat IPC: 0.403742 cumulative IPC: 0.402854 (Simulation time: 0 hr 51 min 29 sec) 
Finished CPU 0 instructions: 50000000 cycles: 124114523 cumulative IPC: 0.402854 (Simulation time: 0 hr 51 min 29 sec) 

ChampSim completed all CPUs

Region of Interest Statistics

CPU 0 cumulative IPC: 0.402854 instructions: 50000000 cycles: 124114523
ITLB TOTAL     ACCESS:    8700887  HIT:    8158372  MISS:     542515  HIT %:    93.7648  MISS %:    6.23517   MPKI: 10.8503
ITLB LOAD TRANSLATION ACCESS:    8700887  HIT:    8158372  MISS:     542515  HIT %:    93.7648  MISS %:    6.23517   MPKI: 10.8503
ITLB PREFETCH  REQUESTED:          0  ISSUED:          0  USEFUL:          0  USELESS:          0
ITLB USEFUL LOAD PREFETCHES:          0 PREFETCH ISSUED TO LOWER LEVEL:          0  ACCURACY: -nan
ITLB TIMELY PREFETCHES:          0 LATE PREFETCHES: 0 DROPPED PREFETCHES: 0
ITLB PREFETCHES SAME FILL-ORIGIN LEVEL: 0 DIFFERENT FILL-ORIGIN LEVEL: 0
ITLB AVERAGE MISS LATENCY: 9.17325 cycles
ITLB RQ	ACCESS:   10385413	FORWARD:          0	MERGED:    1547176	TO_CACHE:    8838237

DTLB TOTAL     ACCESS:   12368705  HIT:   11840176  MISS:     528529  HIT %:    95.7269  MISS %:    4.27312   MPKI: 10.5706
DTLB LOAD TRANSLATION ACCESS:   12368705  HIT:   11840176  MISS:     528529  HIT %:    95.7269  MISS %:    4.27312   MPKI: 10.5706
DTLB PREFETCH  REQUESTED:          0  ISSUED:          0  USEFUL:          0  USELESS:          0
DTLB USEFUL LOAD PREFETCHES:          0 PREFETCH ISSUED TO LOWER LEVEL:          0  ACCURACY: -nan
DTLB TIMELY PREFETCHES:          0 LATE PREFETCHES: 0 DROPPED PREFETCHES: 0
DTLB PREFETCHES SAME FILL-ORIGIN LEVEL: 0 DIFFERENT FILL-ORIGIN LEVEL: 0
DTLB AVERAGE MISS LATENCY: 9.3685 cycles
DTLB RQ	ACCESS:   15497941	FORWARD:          0	MERGED:    3111480	TO_CACHE:   12386461

STLB TOTAL     ACCESS:    1586743  HIT:    1579383  MISS:       7360  HIT %:    99.5362  MISS %:   0.463843   MPKI: 0.1472
STLB LOAD TRANSLATION ACCESS:    1071044  HIT:    1063684  MISS:       7360  HIT %:    99.3128  MISS %:    0.68718   MPKI: 0.1472
STLB TRANSLATION FROM L1D PREFETCHER ACCESS:     515699  HIT:     515699  MISS:          0  HIT %:        100  MISS %:          0   MPKI: 0
STLB PREFETCH  REQUESTED:          0  ISSUED:          0  USEFUL:          0  USELESS:          0
STLB USEFUL LOAD PREFETCHES:          0 PREFETCH ISSUED TO LOWER LEVEL:          0  ACCURACY: -nan
STLB TIMELY PREFETCHES:          0 LATE PREFETCHES: 0 DROPPED PREFETCHES: 0
STLB PREFETCHES SAME FILL-ORIGIN LEVEL: 0 DIFFERENT FILL-ORIGIN LEVEL: 0
STLB AVERAGE MISS LATENCY: 37.3451 cycles
STLB RQ	ACCESS:    1964545	FORWARD:          0	MERGED:     377802	TO_CACHE:    1586743

STLB Hit, L1D data hit: 0
STLB Hit, L2C data hit: 0
STLB Hit, LLC data hit: 0
STLB Hit, LLC data miss: 0
STLB STLB hints to L2: 0
L1D TOTAL     ACCESS:   15859570  HIT:   14113707  MISS:    1745863  HIT %:    88.9917  MISS %:    11.0083   MPKI: 34.9173
L1D LOAD      ACCESS:    8682199  HIT:    7755623  MISS:     926576  HIT %:    89.3279  MISS %:    10.6721   MPKI: 18.5315
L1D RFO       ACCESS:    6356028  HIT:    6052838  MISS:     303190  HIT %:    95.2299  MISS %:    4.77012   MPKI: 6.0638
L1D PREFETCH  ACCESS:     821343  HIT:     305246  MISS:     516097  HIT %:    37.1643  MISS %:    62.8357   MPKI: 10.3219
L1D PREFETCH  REQUESTED:    1787192  ISSUED:    1787192  USEFUL:     285380  USELESS:     230726
L1D USEFUL LOAD PREFETCHES:     285380 PREFETCH ISSUED TO LOWER LEVEL:     566761  ACCURACY: 50.3528
L1D TIMELY PREFETCHES:     285380 LATE PREFETCHES: 50519 DROPPED PREFETCHES: 0
L1D PREFETCHES SAME FILL-ORIGIN LEVEL: 566761 DIFFERENT FILL-ORIGIN LEVEL: 0
L1D AVERAGE MISS LATENCY: 1.90433e+06 cycles
L1D RQ	ACCESS:   11831101	FORWARD:          0	MERGED:    2989572	TO_CACHE:    8712366
L1D WQ	ACCESS:    6828105	FORWARD:     129353	MERGED:      42530	TO_CACHE:    6785575
L1D PQ	ACCESS:     893691	FORWARD:          0	MERGED:          0	TO_CACHE:     893501

L1D UNIQUE REGIONS ACCESSED: 0
L1D REGIONS CONFLICTS: 0
L1D Cross Page Prefetch Requests: 0
L1D Same Page Prefetch Requests: 1055184
L1D ROI Sum of L1D PQ occupancy: 11488987
L1D PREFETCHES PUSHED FROM L2C: 0
L1I TOTAL     ACCESS:    9865572  HIT:    6909548  MISS:    2956024  HIT %:     70.037  MISS %:     29.963   MPKI: 59.1205
L1I LOAD      ACCESS:    9865572  HIT:    6909548  MISS:    2956024  HIT %:     70.037  MISS %:     29.963   MPKI: 59.1205
L1I PREFETCH  REQUESTED:          0  ISSUED:          0  USEFUL:          0  USELESS:          0
L1I USEFUL LOAD PREFETCHES:          0 PREFETCH ISSUED TO LOWER LEVEL:          0  ACCURACY: -nan
L1I TIMELY PREFETCHES:          0 LATE PREFETCHES: 0 DROPPED PREFETCHES: 0
L1I PREFETCHES SAME FILL-ORIGIN LEVEL: 0 DIFFERENT FILL-ORIGIN LEVEL: 0
L1I AVERAGE MISS LATENCY: 17.6382 cycles
L1I RQ	ACCESS:   13942091	FORWARD:          0	MERGED:    3556678	TO_CACHE:   10385413

BTB TOTAL     ACCESS:    6029453  HIT:    4118846  MISS:    1910607  HIT %:    68.3121  MISS %:    31.6879   MPKI: 38.2121
BTB BRANCH_DIRECT_JUMP	ACCESS:     489854  HIT:     330873  MISS:     158981
BTB BRANCH_INDIRECT	ACCESS:     174632  HIT:     139695  MISS:      34937
BTB BRANCH_CONDITIONAL	ACCESS:    2970792  HIT:    2448629  MISS:     522163
BTB BRANCH_DIRECT_CALL	ACCESS:    1006426  HIT:     627337  MISS:     379089
BTB BRANCH_INDIRECT_CALL	ACCESS:     190665  HIT:     118830  MISS:      71835
BTB BRANCH_RETURN	ACCESS:    1197084  HIT:     453482  MISS:     743602
BTB BRANCH_OTHER ACCESS:          0  HIT:          0  MISS:          0

L2C TOTAL     ACCESS:    6324954  HIT:    5696795  MISS:     628159  HIT %:    90.0686  MISS %:    9.93144   MPKI: 12.5632
L2C LOAD      ACCESS:    3832072  HIT:    3417889  MISS:     414183  HIT %:    89.1917  MISS %:    10.8083   MPKI: 8.28366
L2C DATA LOAD MPKI: 1.3196
L2C INSTRUCTION LOAD MPKI: 6.96406
L2C RFO       ACCESS:     303045  HIT:     273620  MISS:      29425  HIT %:    90.2902  MISS %:    9.70978   MPKI: 0.5885
L2C PREFETCH  ACCESS:    1583732  HIT:    1410557  MISS:     173175  HIT %:    89.0654  MISS %:    10.9346   MPKI: 3.4635
L2C DATA PREFETCH MPKI: 3.4635
L2C INSTRUCTION PREFETCH MPKI: 0
L2C WRITEBACK ACCESS:     598472  HIT:     589375  MISS:       9097  HIT %:      98.48  MISS %:    1.52004   MPKI: 0.18194
L2C LOAD TRANSLATION ACCESS:       7633  HIT:       5354  MISS:       2279  HIT %:    70.1428  MISS %:    29.8572   MPKI: 0.04558
L2C PREFETCH  REQUESTED:    1076923  ISSUED:    1076923  USEFUL:      10907  USELESS:     162096
L2C USEFUL LOAD PREFETCHES:      10907 PREFETCH ISSUED TO LOWER LEVEL:     174713  ACCURACY: 6.24281
L2C TIMELY PREFETCHES:      10907 LATE PREFETCHES: 1538 DROPPED PREFETCHES: 0
L2C PREFETCHES SAME FILL-ORIGIN LEVEL: 79134 DIFFERENT FILL-ORIGIN LEVEL: 0
L2C AVERAGE MISS LATENCY: 33.9259 cycles
L2C RQ	ACCESS:    4142760	FORWARD:          0	MERGED:          0	TO_CACHE:    4142752
L2C WQ	ACCESS:     598472	FORWARD:         14	MERGED:          0	TO_CACHE:     598472
L2C PQ	ACCESS:    1643684	FORWARD:          0	MERGED:      50918	TO_CACHE:    1592760

L2C Instructions Evicting Data 135823
L2C Translations Evicting Data 1384
L2C Data Evicting Data 136691
L2C Instructions Evicting Instructions 211525
L2C Translations Evicting Instructions 842
L2C Data Evicting Instructions 130535
L2C Instructions Evicting Translations 855
L2C Translations Evicting Translations 53
L2C Data Evicting Translations 1354
L2C Dense regions hint from L2: 0
PSCL5 TOTAL     ACCESS:       7360  HIT:       7360  MISS:          0  HIT %:        100  MISS %:          0   MPKI: 0
PSCL5 LOAD TRANSLATION ACCESS:       7360  HIT:       7360  MISS:          0  HIT %:        100  MISS %:          0   MPKI: 0
PSCL5 PREFETCH  REQUESTED:          0  ISSUED:          0  USEFUL:          0  USELESS:          0
PSCL5 USEFUL LOAD PREFETCHES:          0 PREFETCH ISSUED TO LOWER LEVEL:          0  ACCURACY: -nan
PSCL5 TIMELY PREFETCHES:          0 LATE PREFETCHES: 0 DROPPED PREFETCHES: 0
PSCL5 PREFETCHES SAME FILL-ORIGIN LEVEL: 0 DIFFERENT FILL-ORIGIN LEVEL: 0

PSCL4 TOTAL     ACCESS:       5796  HIT:       5780  MISS:         16  HIT %:    99.7239  MISS %:   0.276052   MPKI: 0.00032
PSCL4 LOAD TRANSLATION ACCESS:       5796  HIT:       5780  MISS:         16  HIT %:    99.7239  MISS %:   0.276052   MPKI: 0.00032
PSCL4 PREFETCH  REQUESTED:          0  ISSUED:          0  USEFUL:          0  USELESS:          0
PSCL4 USEFUL LOAD PREFETCHES:          0 PREFETCH ISSUED TO LOWER LEVEL:          0  ACCURACY: -nan
PSCL4 TIMELY PREFETCHES:          0 LATE PREFETCHES: 0 DROPPED PREFETCHES: 0
PSCL4 PREFETCHES SAME FILL-ORIGIN LEVEL: 0 DIFFERENT FILL-ORIGIN LEVEL: 0

PSCL3 TOTAL     ACCESS:       7284  HIT:       7266  MISS:         18  HIT %:    99.7529  MISS %:   0.247117   MPKI: 0.00036
PSCL3 LOAD TRANSLATION ACCESS:       7284  HIT:       7266  MISS:         18  HIT %:    99.7529  MISS %:   0.247117   MPKI: 0.00036
PSCL3 PREFETCH  REQUESTED:          0  ISSUED:          0  USEFUL:          0  USELESS:          0
PSCL3 USEFUL LOAD PREFETCHES:          0 PREFETCH ISSUED TO LOWER LEVEL:          0  ACCURACY: -nan
PSCL3 TIMELY PREFETCHES:          0 LATE PREFETCHES: 0 DROPPED PREFETCHES: 0
PSCL3 PREFETCHES SAME FILL-ORIGIN LEVEL: 0 DIFFERENT FILL-ORIGIN LEVEL: 0

PSCL2 TOTAL     ACCESS:       7360  HIT:       7114  MISS:        246  HIT %:    96.6576  MISS %:    3.34239   MPKI: 0.00492
PSCL2 LOAD TRANSLATION ACCESS:       7360  HIT:       7114  MISS:        246  HIT %:    96.6576  MISS %:    3.34239   MPKI: 0.00492
PSCL2 PREFETCH  REQUESTED:          0  ISSUED:          0  USEFUL:          0  USELESS:          0
PSCL2 USEFUL LOAD PREFETCHES:          0 PREFETCH ISSUED TO LOWER LEVEL:          0  ACCURACY: -nan
PSCL2 TIMELY PREFETCHES:          0 LATE PREFETCHES: 0 DROPPED PREFETCHES: 0
PSCL2 PREFETCHES SAME FILL-ORIGIN LEVEL: 0 DIFFERENT FILL-ORIGIN LEVEL: 0

LLC TOTAL     ACCESS:     664192  HIT:     642638  MISS:      21554  HIT %:    96.7549  MISS %:    3.24515   MPKI: 0.43108
LLC LOAD      ACCESS:     412685  HIT:     408777  MISS:       3908  HIT %:     99.053  MISS %:   0.946969   MPKI: 0.07816
LLC RFO       ACCESS:      29385  HIT:      26949  MISS:       2436  HIT %:    91.7101  MISS %:    8.28994   MPKI: 0.04872
LLC PREFETCH  ACCESS:     174713  HIT:     159632  MISS:      15081  HIT %:    91.3681  MISS %:    8.63187   MPKI: 0.30162
LLC WRITEBACK ACCESS:      45130  HIT:      45069  MISS:         61  HIT %:    99.8648  MISS %:   0.135165   MPKI: 0.00122
LLC LOAD TRANSLATION ACCESS:       2279  HIT:       2211  MISS:         68  HIT %:    97.0162  MISS %:    2.98376   MPKI: 0.00136
LLC PREFETCH  REQUESTED:          0  ISSUED:          0  USEFUL:       1205  USELESS:       6063
LLC USEFUL LOAD PREFETCHES:       1205 PREFETCH ISSUED TO LOWER LEVEL:      15081  ACCURACY: 7.99019
LLC TIMELY PREFETCHES:       1205 LATE PREFETCHES: 0 DROPPED PREFETCHES: 0
LLC PREFETCHES SAME FILL-ORIGIN LEVEL: 0 DIFFERENT FILL-ORIGIN LEVEL: 0
LLC AVERAGE MISS LATENCY: 127.484 cycles
LLC RQ	ACCESS:     444349	FORWARD:          0	MERGED:          0	TO_CACHE:     444349
LLC WQ	ACCESS:      45130	FORWARD:          0	MERGED:          0	TO_CACHE:      45130
LLC PQ	ACCESS:     174713	FORWARD:          0	MERGED:          0	TO_CACHE:     174713

LLC Dense regions hint to LLC: 0

RAW hits: 553120
Loads Generated: 12384217
Loads sent to L1D: 11831101
Stores Generated: 6828093
Stores sent to L1D: 6828105
Major fault: 0 Minor fault: 2024
Allocated PAGES: 2024

stream: 
stream:times selected: 1040146
stream:pref_filled: 104933
stream:pref_useful: 20480
stream:pref_late: 25612
stream:misses: 12423
stream:misses_by_poll: 0

CS: 
CS:times selected: 173217
CS:pref_filled: 131498
CS:pref_useful: 114537
CS:pref_late: 3650
CS:misses: 9088
CS:misses_by_poll: 0

CPLX: 
CPLX:times selected: 864981
CPLX:pref_filled: 369305
CPLX:pref_useful: 201933
CPLX:pref_late: 11680
CPLX:misses: 106080
CPLX:misses_by_poll: 125

NL_L1: 
NL:times selected: 1740
NL:pref_filled: 333
NL:pref_useful: 42
NL:pref_late: 4
NL:misses: 71
NL:misses_by_poll: 0

total selections: 2080084
total_filled: 516097
total_useful: 285380
total_late: 54743
total_polluted: 125
total_misses_after_warmup: 956743
conflicts: 3330480
Degree Incremented Times: 35937
Degree Decremented Times: 90878

L1 IP Table Write Accesses: 5103057
L1 IP Table Read Accesses: 1772577
L1 RST Write Accesses: 868570
L1 RST Read Accesses: 1737140
L1 CSPT Write Accesses: 868570
L1 CSPT Read Accesses: 2859240
L1 RR Filter Tag Write Accesses: 893691
L1 RR Filter Tag Read Accesses: 69997881
L1 IP Table Tag Write Accesses: 8712366
L1 IP Table Tag Read Accesses: 8712366
L1 RST Tag Write Accesses: 0
L1 RST Tag Read Accesses: 7713105
L1 RR Filter Write Accesses: 0
L1 RR Filter Read Accesses: 2483268
test: 145748
L2 IP Table Read Accesses: 2038771
L2 IP Table Write Accesses: 2607762
L2 IP Table Tag Read Accesses: 1414566
L2 IP Table Tag Write Accesses: 1414566

DRAM Statistics
 CHANNEL 0
 RQ ROW_BUFFER_HIT:      10177  ROW_BUFFER_MISS:      11316
 DBUS_CONGESTED:          0
 WQ ROW_BUFFER_HIT:          9  ROW_BUFFER_MISS:        123  FULL:          0

 AVG_CONGESTED_CYCLE: -
 All warmup complete: 2
Channel 0 Bank busy for read cycles: 0
Channel 0 Bank busy for write cycles: 0
Channel 0
Rank 0
0banks busy for read cycles: 122950565
0banks busy for write cycles: 111
1banks busy for read cycles: 576599
1banks busy for write cycles: 19877
2banks busy for read cycles: 328587
2banks busy for write cycles: 1279
3banks busy for read cycles: 107948
3banks busy for write cycles: 605
4banks busy for read cycles: 59838
4banks busy for write cycles: 89
5banks busy for read cycles: 30137
5banks busy for write cycles: 229
6banks busy for read cycles: 17990
6banks busy for write cycles: 145
7banks busy for read cycles: 13522
7banks busy for write cycles: 0
8banks busy for read cycles: 7003
8banks busy for write cycles: 0

CPU 0 Branch Prediction Accuracy: 92.4998% MPKI: 14.0697 Average ROB Occupancy at Mispredict: 16.4368
Branch types
NOT_BRANCH: 40620241 81.2405%
BRANCH_DIRECT_JUMP: 489854 0.979708%
BRANCH_INDIRECT: 174632 0.349264%
BRANCH_CONDITIONAL: 6320945 12.6419%
BRANCH_DIRECT_CALL: 1006426 2.01285%
BRANCH_INDIRECT_CALL: 190665 0.38133%
BRANCH_RETURN: 1197084 2.39417%
BRANCH_OTHER: 0 0%

@sumon_overall_L1D    285380     50519    230726    516097   1787192   1787192
@Sumon_Early_by_class_L1D     16546    106394    160765         0
@Sumon_Late_by_class_L1D     24709      3360      8866         0

@Sumon_Early_by_cycle_L1D    258548      7590      3584      2345       192      3671      1584      2942      2249      2448       139        88
@Sumon_Late_by_cycle_L1D     50122       396         1         0         0         0         0         0         0         0         0         0
@Sumon_Early_stream_L1D      7382      2078      1031       958        88      1488       795       956       759       956        41        14
@Sumon_Early_CS_L1D    104248      1430       206       414         2        58         2        32         0         1         1         0
@Sumon_Early_CPLX_L1D    145953      3909      2192       956        98      2108       787      1924      1439      1235        90        74
@Sumon_Late_stream_L1D     24458       250         1         0         0         0         0         0         0         0         0         0
@Sumon_Late_CS_L1D      3262        98         0         0         0         0         0         0         0         0         0         0
@Sumon_Late_CPLX_L1D      8820        46         0         0         0         0         0         0         0         0         0         0
@sumon_overall_L2C     10907      1538    162096    173175   1076923   1076923
@Sumon_Early_by_class_L2C       714       155      1019         0
@Sumon_Late_by_class_L2C         0        95         0         0

@Sumon_Early_by_cycle_L2C      1909      1372      1037       355       265      1581       756       340       259       583       436      2014
@Sumon_Late_by_cycle_L2C      1072       466         0         0         0         0         0         0         0         0         0         0
@Sumon_Early_stream_L2C         0         2         0         0         0         0         0         0         0        25       185       502
@Sumon_Early_CS_L2C        31         4         6         0         0         0         0         0         0         0         0       114
@Sumon_Early_CPLX_L2C         0         1         0         0         0         0         0         1        10        72       121       814
@Sumon_Late_stream_L2C         0         0         0         0         0         0         0         0         0         0         0         0
@Sumon_Late_CS_L2C        92         3         0         0         0         0         0         0         0         0         0         0
@Sumon_Late_CPLX_L2C         0         0         0         0         0         0         0         0         0         0         0         0
DRAM PAGES: 1048576
Allocated PAGES: 2024
