Initialize SIGNATURE TABLE
ST_SET: 1
ST_WAY: 256
ST_TAG_BIT: 16
ST_TAG_MASK: ffff

Initialize PATTERN TABLE
PT_SET: 512
PT_WAY: 4
SIG_DELTA_BIT: 7
C_SIG_BIT: 4
C_DELTA_BIT: 4

Initialize PREFETCH FILTER
FILTER_SET: 1024

*** ChampSim Multicore Out-of-Order Simulator ***

Warmup Instructions: 50000000
Simulation Instructions: 50000000
Number of CPUs: 1
LLC sets: 2048
LLC ways: 16
Off-chip DRAM Size: 4096 MB Channels: 1 Width: 64-bit Data Rate: 6400 MT/s
CPU 0 runs ../../biswa/SPEC2017Traces/605.mcf_s-1644B.champsimtrace.xz
.xz
CPU 0 Bimodal branch predictor
BTB has LRU replacement policy
ITLB has LRU replacement policy
DTLB has LRU replacement policy
STLB has LRU replacement policy
L1I has LRU replacement policy
L1D has LRU replacement policy
ST_WAYS: 256
PT_SETS: 512
L2C has LRU replacement policy
LLC has LRU replacement policy
epoch: 1000
next table: 2904
cur table: 10070
epoch: 1000
next table: 2641
cur table: 2904
epoch: 1000
next table: 2474
cur table: 2641
epoch: 1000
next table: 2321
cur table: 2474
epoch: 1000
next table: 2327
cur table: 2321
epoch: 1000
next table: 2322
cur table: 2327
epoch: 1000
next table: 2274
cur table: 2322
epoch: 1000
next table: 2327
cur table: 2274
epoch: 1000
next table: 2196
cur table: 2327
epoch: 1000
next table: 2258
cur table: 2196
epoch: 1000
next table: 2230
cur table: 2258
epoch: 1000
next table: 2185
cur table: 2230
epoch: 1000
next table: 2175
cur table: 2185
epoch: 1000
next table: 2198
cur table: 2175
epoch: 1000
next table: 2203
cur table: 2198
epoch: 1000
next table: 2210
cur table: 2203
epoch: 1000
next table: 2208
cur table: 2210
epoch: 1000
next table: 2208
cur table: 2208
epoch: 1000
next table: 2148
cur table: 2208
epoch: 1000
next table: 2164
cur table: 2148
epoch: 1000
next table: 2158
cur table: 2164
epoch: 1000
next table: 2179
cur table: 2158
epoch: 1000
next table: 3919
cur table: 26945
epoch: 1000
next table: 2151
cur table: 2179
epoch: 1000
next table: 2185
cur table: 2151
epoch: 1000
next table: 2169
cur table: 2185
epoch: 1000
next table: 3417
cur table: 3919
epoch: 1000
next table: 2166
cur table: 2169
epoch: 1000
next table: 2161
cur table: 2166
epoch: 1000
next table: 2865
cur table: 3417
epoch: 1000
next table: 2127
cur table: 2161
epoch: 1000
next table: 2616
cur table: 2865
epoch: 1000
next table: 2154
cur table: 2127
epoch: 1000
next table: 2158
cur table: 2154
epoch: 1000
next table: 2556
cur table: 2616
epoch: 1000
next table: 2166
cur table: 2158
epoch: 1000
next table: 2357
cur table: 2556
epoch: 1000
next table: 2179
cur table: 2166
epoch: 1000
next table: 2163
cur table: 2179
epoch: 1000
next table: 2315
cur table: 2357
epoch: 1000
next table: 2189
cur table: 2163
epoch: 1000
next table: 2293
cur table: 2315
epoch: 1000
next table: 2223
cur table: 2189
epoch: 1000
next table: 2226
cur table: 2223
epoch: 1000
next table: 2282
cur table: 2293
epoch: 1000
next table: 2207
cur table: 2226
epoch: 1000
next table: 2228
cur table: 2282
epoch: 1000
next table: 2178
cur table: 2207
epoch: 1000
next table: 2161
cur table: 2228
epoch: 1000
next table: 2190
cur table: 2178
epoch: 1000
next table: 2199
cur table: 2190
epoch: 1000
next table: 2157
cur table: 2161
epoch: 1000
next table: 2235
cur table: 2199
epoch: 1000
next table: 2127
cur table: 2157
epoch: 1000
next table: 2180
cur table: 2235
epoch: 1000
next table: 2165
cur table: 2127
epoch: 1000
next table: 2174
cur table: 2180
epoch: 1000
next table: 2111
cur table: 2165
epoch: 1000
next table: 2226
cur table: 2174
epoch: 1000
next table: 2218
cur table: 2226
epoch: 1000
next table: 2107
cur table: 2111
epoch: 1000
next table: 2188
cur table: 2218
epoch: 1000
next table: 2079
cur table: 2107
epoch: 1000
next table: 2232
cur table: 2188
epoch: 1000
next table: 2050
cur table: 2079
epoch: 1000
next table: 2247
cur table: 2232
epoch: 1000
next table: 2027
cur table: 2050
epoch: 1000
next table: 2263
cur table: 2247
epoch: 1000
next table: 2042
cur table: 2027
epoch: 1000
next table: 2238
cur table: 2263
epoch: 1000
next table: 2074
cur table: 2042
epoch: 1000
next table: 2187
cur table: 2238
epoch: 1000
next table: 2277
cur table: 2187
epoch: 1000
next table: 2077
cur table: 2074
epoch: 1000
next table: 2237
cur table: 2277
epoch: 1000
next table: 2057
cur table: 2077
epoch: 1000
next table: 2233
cur table: 2237
epoch: 1000
next table: 2023
cur table: 2057
epoch: 1000
next table: 2243
cur table: 2233
epoch: 1000
next table: 2044
cur table: 2023
epoch: 1000
next table: 2229
cur table: 2243
epoch: 1000
next table: 2038
cur table: 2044
epoch: 1000
next table: 2234
cur table: 2229
epoch: 1000
next table: 2018
cur table: 2038
epoch: 1000
next table: 2306
cur table: 2234
epoch: 1000
next table: 2018
cur table: 2018
epoch: 1000
next table: 2244
cur table: 2306
epoch: 1000
next table: 2026
cur table: 2018
epoch: 1000
next table: 2266
cur table: 2244
epoch: 1000
next table: 2229
cur table: 2266
epoch: 1000
next table: 2026
cur table: 2026
epoch: 1000
next table: 2194
cur table: 2229
epoch: 1000
next table: 2036
cur table: 2026
epoch: 1000
next table: 2275
cur table: 2194
epoch: 1000
next table: 2042
cur table: 2036
epoch: 1000
next table: 2220
cur table: 2275
epoch: 1000
next table: 2099
cur table: 2042
epoch: 1000
next table: 2215
cur table: 2220
epoch: 1000
next table: 2045
cur table: 2099
epoch: 1000
next table: 2239
cur table: 2215
epoch: 1000
next table: 2046
cur table: 2045
epoch: 1000
next table: 2161
cur table: 2239
epoch: 1000
next table: 1996
cur table: 2046
epoch: 1000
next table: 2166
cur table: 2161
epoch: 1000
next table: 2187
cur table: 2166
epoch: 1000
next table: 2014
cur table: 1996
epoch: 1000
next table: 2214
cur table: 2187
epoch: 1000
next table: 2019
cur table: 2014
epoch: 1000
next table: 2194
cur table: 2214
epoch: 1000
next table: 2032
cur table: 2019
epoch: 1000
next table: 2145
cur table: 2194
epoch: 1000
next table: 2019
cur table: 2032
epoch: 1000
next table: 2187
cur table: 2145
epoch: 1000
next table: 2016
cur table: 2019
epoch: 1000
next table: 2191
cur table: 2187
epoch: 1000
next table: 2066
cur table: 2016
epoch: 1000
next table: 2179
cur table: 2191
epoch: 1000
next table: 2160
cur table: 2066
epoch: 1000
next table: 2147
cur table: 2179
epoch: 1000
next table: 2159
cur table: 2147
epoch: 1000
next table: 2084
cur table: 2160
epoch: 1000
next table: 2203
cur table: 2159
epoch: 1000
next table: 2127
cur table: 2084
epoch: 1000
next table: 2184
cur table: 2203
epoch: 1000
next table: 2083
cur table: 2127
epoch: 1000
next table: 2226
cur table: 2184
epoch: 1000
next table: 2064
cur table: 2083
epoch: 1000
next table: 2168
cur table: 2226
epoch: 1000
next table: 2042
cur table: 2064
epoch: 1000
next table: 2189
cur table: 2168
epoch: 1000
next table: 2056
cur table: 2042
epoch: 1000
next table: 2210
cur table: 2189
epoch: 1000
next table: 2261
cur table: 2210
epoch: 1000
next table: 2037
cur table: 2056
epoch: 1000
next table: 2285
cur table: 2261
epoch: 1000
next table: 2034
cur table: 2037
epoch: 1000
next table: 2262
cur table: 2285
epoch: 1000
next table: 2061
cur table: 2034
epoch: 1000
next table: 2251
cur table: 2262
epoch: 1000
next table: 2065
cur table: 2061
epoch: 1000
next table: 2252
cur table: 2251
epoch: 1000
next table: 2033
cur table: 2065
epoch: 1000
next table: 2261
cur table: 2252
epoch: 1000
next table: 2058
cur table: 2033
epoch: 1000
next table: 2246
cur table: 2261
epoch: 1000
next table: 2247
cur table: 2246
epoch: 1000
next table: 2071
cur table: 2058
epoch: 1000
next table: 2203
cur table: 2247
epoch: 1000
next table: 2050
cur table: 2071
epoch: 1000
next table: 2250
cur table: 2203
epoch: 1000
next table: 2103
cur table: 2050
epoch: 1000
next table: 2252
cur table: 2250
epoch: 1000
next table: 2051
cur table: 2103
epoch: 1000
next table: 2221
cur table: 2252
epoch: 1000
next table: 2101
cur table: 2051
epoch: 1000
next table: 2267
cur table: 2221
epoch: 1000
next table: 2242
cur table: 2267
epoch: 1000
next table: 2110
cur table: 2101
epoch: 1000
next table: 2196
cur table: 2242
epoch: 1000
next table: 2072
cur table: 2110
epoch: 1000
next table: 2260
cur table: 2196
epoch: 1000
next table: 2142
cur table: 2072
epoch: 1000
next table: 2255
cur table: 2260
epoch: 1000
next table: 2135
cur table: 2142
epoch: 1000
next table: 2277
cur table: 2255
epoch: 1000
next table: 2083
cur table: 2135
epoch: 1000
next table: 2304
cur table: 2277
epoch: 1000
next table: 2326
cur table: 2304
epoch: 1000
next table: 2058
cur table: 2083
epoch: 1000
next table: 2281
cur table: 2326
epoch: 1000
next table: 2098
cur table: 2058
epoch: 1000
next table: 2263
cur table: 2281
epoch: 1000
next table: 2117
cur table: 2098
epoch: 1000
next table: 2266
cur table: 2263
epoch: 1000
next table: 2150
cur table: 2117
epoch: 1000
next table: 2295
cur table: 2266
epoch: 1000
next table: 2027
cur table: 2150
epoch: 1000
next table: 2152
cur table: 2295
epoch: 1000
next table: 2160
cur table: 2152
epoch: 1000
next table: 2000
cur table: 2027
epoch: 1000
next table: 2144
cur table: 2160
epoch: 1000
next table: 1989
cur table: 2000
epoch: 1000
next table: 2182
cur table: 2144
epoch: 1000
next table: 2036
cur table: 1989
epoch: 1000
next table: 2208
cur table: 2182
epoch: 1000
next table: 2045
cur table: 2036
epoch: 1000
next table: 2185
cur table: 2208
epoch: 1000
next table: 2028
cur table: 2045
epoch: 1000
next table: 2228
cur table: 2185
epoch: 1000
next table: 2053
cur table: 2028
epoch: 1000
next table: 2186
cur table: 2228
epoch: 1000
next table: 2164
cur table: 2186
epoch: 1000
next table: 2207
cur table: 2053
epoch: 1000
next table: 2152
cur table: 2164
epoch: 1000
next table: 2023
cur table: 2207
epoch: 1000
next table: 2190
cur table: 2152
epoch: 1000
next table: 2020
cur table: 2023
epoch: 1000
next table: 2224
cur table: 2190
epoch: 1000
next table: 2084
cur table: 2020
epoch: 1000
next table: 2237
cur table: 2224
epoch: 1000
next table: 2105
cur table: 2084
epoch: 1000
next table: 2245
cur table: 2237
epoch: 1000
next table: 2159
cur table: 2105
epoch: 1000
next table: 2247
cur table: 2245
epoch: 1000
next table: 2208
cur table: 2247
epoch: 1000
next table: 2050
cur table: 2159
epoch: 1000
next table: 2173
cur table: 2208
epoch: 1000
next table: 2089
cur table: 2050
epoch: 1000
next table: 2168
cur table: 2173
epoch: 1000
next table: 2139
cur table: 2089
epoch: 1000
next table: 2197
cur table: 2168
epoch: 1000
next table: 2119
cur table: 2139
epoch: 1000
next table: 2234
cur table: 2197
epoch: 1000
next table: 2059
cur table: 2119
epoch: 1000
next table: 2208
cur table: 2234
epoch: 1000
next table: 2060
cur table: 2059
epoch: 1000
next table: 2206
cur table: 2208
epoch: 1000
next table: 2228
cur table: 2206
epoch: 1000
next table: 2041
cur table: 2060
epoch: 1000
next table: 2180
cur table: 2228
epoch: 1000
next table: 2116
cur table: 2041
epoch: 1000
next table: 2178
cur table: 2180
epoch: 1000
next table: 2104
cur table: 2116
epoch: 1000
next table: 2175
cur table: 2178
epoch: 1000
next table: 2209
cur table: 2104
epoch: 1000
next table: 2175
cur table: 2175
epoch: 1000
next table: 2256
cur table: 2175
epoch: 1000
next table: 2103
cur table: 2209
epoch: 1000
next table: 2237
cur table: 2256
epoch: 1000
next table: 2035
cur table: 2103
epoch: 1000
next table: 2209
cur table: 2237
epoch: 1000
next table: 2101
cur table: 2035
epoch: 1000
next table: 2177
cur table: 2209
epoch: 1000
next table: 2063
cur table: 2101
epoch: 1000
next table: 2208
cur table: 2177
epoch: 1000
next table: 2015
cur table: 2063
epoch: 1000
next table: 2213
cur table: 2208
epoch: 1000
next table: 2108
cur table: 2015
epoch: 1000
next table: 2260
cur table: 2213
epoch: 1000
next table: 2245
cur table: 2260
epoch: 1000
next table: 2055
cur table: 2108
epoch: 1000
next table: 2229
cur table: 2245
epoch: 1000
next table: 2033
cur table: 2055
epoch: 1000
next table: 2207
cur table: 2229
epoch: 1000
next table: 2046
cur table: 2033
epoch: 1000
next table: 2182
cur table: 2207
epoch: 1000
next table: 2004
cur table: 2046
epoch: 1000
next table: 2155
cur table: 2182
epoch: 1000
next table: 2055
cur table: 2004
epoch: 1000
next table: 2168
cur table: 2155
epoch: 1000
next table: 2064
cur table: 2055
epoch: 1000
next table: 2168
cur table: 2168
epoch: 1000
next table: 2045
cur table: 2064
epoch: 1000
next table: 2177
cur table: 2168
epoch: 1000
next table: 2083
cur table: 2045
epoch: 1000
next table: 2187
cur table: 2177
epoch: 1000
next table: 2180
cur table: 2187
epoch: 1000
next table: 2089
cur table: 2083
epoch: 1000
next table: 2169
cur table: 2180
epoch: 1000
next table: 2056
cur table: 2089
epoch: 1000
next table: 2206
cur table: 2169
epoch: 1000
next table: 2052
cur table: 2056
epoch: 1000
next table: 2196
cur table: 2206
epoch: 1000
next table: 2049
cur table: 2052
epoch: 1000
next table: 2187
cur table: 2196
epoch: 1000
next table: 2066
cur table: 2049
epoch: 1000
next table: 2168
cur table: 2187
epoch: 1000
next table: 2039
cur table: 2066
epoch: 1000
next table: 2190
cur table: 2168
epoch: 1000
next table: 2189
cur table: 2190
epoch: 1000
next table: 2078
cur table: 2039
epoch: 1000
next table: 2188
cur table: 2189
epoch: 1000
next table: 2072
cur table: 2078
epoch: 1000
next table: 2208
cur table: 2188
epoch: 1000
next table: 2106
cur table: 2072
epoch: 1000
next table: 2155
cur table: 2208
epoch: 1000
next table: 2087
cur table: 2106
epoch: 1000
next table: 2166
cur table: 2155
epoch: 1000
next table: 2169
cur table: 2087
epoch: 1000
next table: 2150
cur table: 2166
epoch: 1000
next table: 2235
cur table: 2150
epoch: 1000
next table: 2091
cur table: 2169
epoch: 1000
next table: 2217
cur table: 2235
epoch: 1000
next table: 2097
cur table: 2091
epoch: 1000
next table: 2229
cur table: 2217
epoch: 1000
next table: 2050
cur table: 2097
epoch: 1000
next table: 2228
cur table: 2229
epoch: 1000
next table: 2032
cur table: 2050
epoch: 1000
next table: 2238
cur table: 2228
epoch: 1000
next table: 2021
cur table: 2032
epoch: 1000
next table: 2260
cur table: 2238
epoch: 1000
next table: 2084
cur table: 2021
epoch: 1000
next table: 2224
cur table: 2260
epoch: 1000
next table: 2225
cur table: 2224
epoch: 1000
next table: 2107
cur table: 2084
epoch: 1000
next table: 2223
cur table: 2225
epoch: 1000
next table: 2056
cur table: 2107
epoch: 1000
next table: 2252
cur table: 2223
epoch: 1000
next table: 2051
cur table: 2056
epoch: 1000
next table: 2245
cur table: 2252
epoch: 1000
next table: 2071
cur table: 2051
epoch: 1000
next table: 2247
cur table: 2245
epoch: 1000
next table: 2102
cur table: 2071
epoch: 1000
next table: 2175
cur table: 2247
epoch: 1000
next table: 2033
cur table: 2102
epoch: 1000
next table: 2201
cur table: 2175
epoch: 1000
next table: 2226
cur table: 2201
epoch: 1000
next table: 2035
cur table: 2033
epoch: 1000
next table: 2175
cur table: 2226
epoch: 1000
next table: 2077
cur table: 2035
epoch: 1000
next table: 2206
cur table: 2175
epoch: 1000
next table: 2073
cur table: 2077
epoch: 1000
next table: 2218
cur table: 2206
epoch: 1000
next table: 2116
cur table: 2073
epoch: 1000
next table: 2214
cur table: 2218
epoch: 1000
next table: 2139
cur table: 2116
epoch: 1000
next table: 2224
cur table: 2214
epoch: 1000
next table: 2215
cur table: 2224
epoch: 1000
next table: 2081
cur table: 2139
epoch: 1000
next table: 2191
cur table: 2215
epoch: 1000
next table: 2025
cur table: 2081
epoch: 1000
next table: 2141
cur table: 2191
epoch: 1000
next table: 2037
cur table: 2025
epoch: 1000
next table: 2149
cur table: 2141
epoch: 1000
next table: 2088
cur table: 2037
epoch: 1000
next table: 2184
cur table: 2149
epoch: 1000
next table: 2092
cur table: 2088
epoch: 1000
next table: 2172
cur table: 2184
epoch: 1000
next table: 2007
cur table: 2092
epoch: 1000
next table: 2186
cur table: 2172
epoch: 1000
next table: 2026
cur table: 2007
epoch: 1000
next table: 2192
cur table: 2186
epoch: 1000
next table: 2029
cur table: 2026
epoch: 1000
next table: 2188
cur table: 2192
epoch: 1000
next table: 2199
cur table: 2188
epoch: 1000
next table: 2085
cur table: 2029
epoch: 1000
next table: 2199
cur table: 2199
epoch: 1000
next table: 2019
cur table: 2085
epoch: 1000
next table: 2181
cur table: 2199
epoch: 1000
next table: 2021
cur table: 2019
epoch: 1000
next table: 2188
cur table: 2181
epoch: 1000
next table: 2014
cur table: 2021
epoch: 1000
next table: 2192
cur table: 2188
epoch: 1000
next table: 2055
cur table: 2014
epoch: 1000
next table: 2158
cur table: 2192
epoch: 1000
next table: 2083
cur table: 2055
epoch: 1000
next table: 2165
cur table: 2158
epoch: 1000
next table: 2044
cur table: 2083
epoch: 1000
next table: 2195
cur table: 2165
epoch: 1000
next table: 2141
cur table: 2195
epoch: 1000
next table: 2123
cur table: 2044
epoch: 1000
next table: 2192
cur table: 2141
epoch: 1000
next table: 2031
cur table: 2123
epoch: 1000
next table: 2208
cur table: 2192
epoch: 1000
next table: 2076
cur table: 2031
epoch: 1000
next table: 2228
cur table: 2208
epoch: 1000
next table: 2039
cur table: 2076
epoch: 1000
next table: 2212
cur table: 2228
epoch: 1000
next table: 2071
cur table: 2039
epoch: 1000
next table: 2213
cur table: 2212
epoch: 1000
next table: 2065
cur table: 2071
epoch: 1000
next table: 2239
cur table: 2213
epoch: 1000
next table: 2285
cur table: 2239
epoch: 1000
next table: 2000
cur table: 2065
epoch: 1000
next table: 2222
cur table: 2285
epoch: 1000
next table: 2027
cur table: 2000
epoch: 1000
next table: 2225
cur table: 2222
epoch: 1000
next table: 2058
cur table: 2027
epoch: 1000
next table: 2268
cur table: 2225
epoch: 1000
next table: 2027
cur table: 2058
epoch: 1000
next table: 2258
cur table: 2268
epoch: 1000
next table: 2027
cur table: 2027
epoch: 1000
next table: 2231
cur table: 2258
epoch: 1000
next table: 2009
cur table: 2027
epoch: 1000
next table: 2242
cur table: 2231
epoch: 1000
next table: 2035
cur table: 2009
epoch: 1000
next table: 2209
cur table: 2242
epoch: 1000
next table: 2189
cur table: 2209
epoch: 1000
next table: 2058
cur table: 2035
epoch: 1000
next table: 2260
cur table: 2189
epoch: 1000
next table: 2034
cur table: 2058
epoch: 1000
next table: 2230
cur table: 2260
epoch: 1000
next table: 2043
cur table: 2034
epoch: 1000
next table: 2215
cur table: 2230
epoch: 1000
next table: 2039
cur table: 2043
epoch: 1000
next table: 2176
cur table: 2215
epoch: 1000
next table: 2067
cur table: 2039
epoch: 1000
next table: 2237
cur table: 2176
epoch: 1000
next table: 2121
cur table: 2067
epoch: 1000
next table: 2235
cur table: 2237
epoch: 1000
next table: 2020
cur table: 2121
epoch: 1000
next table: 2215
cur table: 2235
epoch: 1000
next table: 2201
cur table: 2215
epoch: 1000
next table: 2084
cur table: 2020
epoch: 1000
next table: 2151
cur table: 2201
epoch: 1000
next table: 2116
cur table: 2084
epoch: 1000
next table: 2182
cur table: 2151
epoch: 1000
next table: 2096
cur table: 2116
epoch: 1000
next table: 2199
cur table: 2182
epoch: 1000
next table: 2139
cur table: 2096
epoch: 1000
next table: 2178
cur table: 2199
epoch: 1000
next table: 2182
cur table: 2178
epoch: 1000
next table: 2134
cur table: 2139
epoch: 1000
next table: 2195
cur table: 2182
epoch: 1000
next table: 2062
cur table: 2134
epoch: 1000
next table: 2233
cur table: 2195
epoch: 1000
next table: 2087
cur table: 2062
epoch: 1000
next table: 2188
cur table: 2233
epoch: 1000
next table: 2043
cur table: 2087
epoch: 1000
next table: 2146
cur table: 2188
epoch: 1000
next table: 2039
cur table: 2043
epoch: 1000
next table: 2203
cur table: 2146
epoch: 1000
next table: 2023
cur table: 2039
epoch: 1000
next table: 2253
cur table: 2203
epoch: 1000
next table: 2031
cur table: 2023
epoch: 1000
next table: 2261
cur table: 2253
epoch: 1000
next table: 2219
cur table: 2261
epoch: 1000
next table: 2042
cur table: 2031
epoch: 1000
next table: 2183
cur table: 2219
epoch: 1000
next table: 2066
cur table: 2042
epoch: 1000
next table: 2151
cur table: 2183
epoch: 1000
next table: 2050
cur table: 2066
epoch: 1000
next table: 2170
cur table: 2151
epoch: 1000
next table: 2009
cur table: 2050
epoch: 1000
next table: 2172
cur table: 2170
epoch: 1000
next table: 2063
cur table: 2009
epoch: 1000
next table: 2163
cur table: 2172
epoch: 1000
next table: 2043
cur table: 2063
epoch: 1000
next table: 2139
cur table: 2163
epoch: 1000
next table: 2062
cur table: 2043
epoch: 1000
next table: 2175
cur table: 2139
epoch: 1000
next table: 2182
cur table: 2175
epoch: 1000
next table: 2039
cur table: 2062
epoch: 1000
next table: 2189
cur table: 2182
epoch: 1000
next table: 2018
cur table: 2039
epoch: 1000
next table: 2174
cur table: 2189
epoch: 1000
next table: 2051
cur table: 2018
epoch: 1000
next table: 2153
cur table: 2174
epoch: 1000
next table: 2106
cur table: 2051
epoch: 1000
next table: 2129
cur table: 2153
epoch: 1000
next table: 2086
cur table: 2106
epoch: 1000
next table: 2174
cur table: 2129
epoch: 1000
next table: 2072
cur table: 2086
epoch: 1000
next table: 2195
cur table: 2174
epoch: 1000
next table: 2207
cur table: 2195
epoch: 1000
next table: 2073
cur table: 2072
epoch: 1000
next table: 2204
cur table: 2207
epoch: 1000
next table: 2078
cur table: 2073
epoch: 1000
next table: 2211
cur table: 2204
epoch: 1000
next table: 2037
cur table: 2078
epoch: 1000
next table: 2191
cur table: 2211
epoch: 1000
next table: 2067
cur table: 2037
epoch: 1000
next table: 2167
cur table: 2191
epoch: 1000
next table: 2049
cur table: 2067
epoch: 1000
next table: 2187
cur table: 2167
epoch: 1000
next table: 2060
cur table: 2049
epoch: 1000
next table: 2180
cur table: 2187
epoch: 1000
next table: 2174
cur table: 2180
epoch: 1000
next table: 2084
cur table: 2060
epoch: 1000
next table: 2198
cur table: 2174
epoch: 1000
next table: 2053
cur table: 2084
epoch: 1000
next table: 2167
cur table: 2198
epoch: 1000
next table: 2063
cur table: 2053
epoch: 1000
next table: 2184
cur table: 2167
epoch: 1000
next table: 2017
cur table: 2063
epoch: 1000
next table: 2195
cur table: 2184
epoch: 1000
next table: 2001
cur table: 2017
epoch: 1000
next table: 2205
cur table: 2195
epoch: 1000
next table: 2027
cur table: 2001
epoch: 1000
next table: 2174
cur table: 2205
epoch: 1000
next table: 2041
cur table: 2027
epoch: 1000
next table: 2173
cur table: 2174
epoch: 1000
next table: 2005
cur table: 2041
epoch: 1000
next table: 2229
cur table: 2173
epoch: 1000
next table: 2233
cur table: 2229
epoch: 1000
next table: 2067
cur table: 2005
epoch: 1000
next table: 2230
cur table: 2233
epoch: 1000
next table: 2001
cur table: 2067
epoch: 1000
next table: 2159
cur table: 2230
epoch: 1000
next table: 2132
cur table: 2001
epoch: 1000
next table: 2186
cur table: 2159
epoch: 1000
next table: 2056
cur table: 2132
epoch: 1000
next table: 2172
cur table: 2186
epoch: 1000
next table: 2053
cur table: 2056
epoch: 1000
next table: 2169
cur table: 2172
epoch: 1000
next table: 2098
cur table: 2053
epoch: 1000
next table: 2202
cur table: 2169
epoch: 1000
next table: 2196
cur table: 2202
epoch: 1000
next table: 2040
cur table: 2098
epoch: 1000
next table: 2188
cur table: 2196
epoch: 1000
next table: 2087
cur table: 2040
epoch: 1000
next table: 2239
cur table: 2188
epoch: 1000
next table: 2055
cur table: 2087
epoch: 1000
next table: 2214
cur table: 2239
epoch: 1000
next table: 2083
cur table: 2055
epoch: 1000
next table: 2198
cur table: 2214
epoch: 1000
next table: 2059
cur table: 2083
epoch: 1000
next table: 2204
cur table: 2198
epoch: 1000
next table: 2082
cur table: 2059
epoch: 1000
next table: 2180
cur table: 2204
epoch: 1000
next table: 2217
cur table: 2180
epoch: 1000
next table: 2026
cur table: 2082
epoch: 1000
next table: 2242
cur table: 2217
epoch: 1000
next table: 2004
cur table: 2026
epoch: 1000
next table: 2227
cur table: 2242
epoch: 1000
next table: 2035
cur table: 2004
epoch: 1000
next table: 2271
cur table: 2227
epoch: 1000
next table: 1989
cur table: 2035
epoch: 1000
next table: 2249
cur table: 2271
epoch: 1000
next table: 1983
cur table: 1989
epoch: 1000
next table: 2265
cur table: 2249
epoch: 1000
next table: 1996
cur table: 1983
epoch: 1000
next table: 2199
cur table: 2265
epoch: 1000
next table: 2027
cur table: 1996
epoch: 1000
next table: 2242
cur table: 2199
epoch: 1000
next table: 2002
cur table: 2027
epoch: 1000
next table: 2183
cur table: 2242
epoch: 1000
next table: 2016
cur table: 2002
epoch: 1000
next table: 2132
cur table: 2183
epoch: 1000
next table: 2117
cur table: 2132
epoch: 1000
next table: 2037
cur table: 2016
epoch: 1000
next table: 2149
cur table: 2117
epoch: 1000
next table: 2034
cur table: 2037
epoch: 1000
next table: 2204
cur table: 2149
epoch: 1000
next table: 2022
cur table: 2034
epoch: 1000
next table: 2192
cur table: 2204
epoch: 1000
next table: 2038
cur table: 2022
epoch: 1000
next table: 2180
cur table: 2192
epoch: 1000
next table: 2039
cur table: 2038
epoch: 1000
next table: 2160
cur table: 2180
epoch: 1000
next table: 2050
cur table: 2039
epoch: 1000
next table: 2204
cur table: 2160
epoch: 1000
next table: 2017
cur table: 2050
epoch: 1000
next table: 2180
cur table: 2204
epoch: 1000
next table: 2173
cur table: 2180
epoch: 1000
next table: 2104
cur table: 2017
epoch: 1000
next table: 2200
cur table: 2173
epoch: 1000
next table: 2030
cur table: 2104
epoch: 1000
next table: 2212
cur table: 2200
epoch: 1000
next table: 2080
cur table: 2030
epoch: 1000
next table: 2173
cur table: 2212
epoch: 1000
next table: 2097
cur table: 2080
epoch: 1000
next table: 2233
cur table: 2173
epoch: 1000
next table: 2015
cur table: 2097
epoch: 1000
next table: 2250
cur table: 2233
epoch: 1000
next table: 2034
cur table: 2015
epoch: 1000
next table: 2177
cur table: 2250
epoch: 1000
next table: 2043
cur table: 2034
epoch: 1000
next table: 2211
cur table: 2177
epoch: 1000
next table: 2236
cur table: 2211
epoch: 1000
next table: 2037
cur table: 2043
epoch: 1000
next table: 2156
cur table: 2236
epoch: 1000
next table: 2045
cur table: 2037
epoch: 1000
next table: 2153
cur table: 2156
epoch: 1000
next table: 2060
cur table: 2045
epoch: 1000
next table: 2196
cur table: 2153
epoch: 1000
next table: 2063
cur table: 2060
epoch: 1000
next table: 2214
cur table: 2196
epoch: 1000
next table: 2060
cur table: 2063
epoch: 1000
next table: 2212
cur table: 2214
epoch: 1000
next table: 2048
cur table: 2060
epoch: 1000
next table: 2199
cur table: 2212
epoch: 1000
next table: 2172
cur table: 2199
epoch: 1000
next table: 2039
cur table: 2048
epoch: 1000
next table: 2205
cur table: 2172
epoch: 1000
next table: 2041
cur table: 2039
epoch: 1000
next table: 2188
cur table: 2205
epoch: 1000
next table: 2081
cur table: 2041
epoch: 1000
next table: 2180
cur table: 2188
epoch: 1000
next table: 2069
cur table: 2081
epoch: 1000
next table: 2202
cur table: 2180
epoch: 1000
next table: 2091
cur table: 2069
epoch: 1000
next table: 2222
cur table: 2202
epoch: 1000
next table: 2035
cur table: 2091
epoch: 1000
next table: 2191
cur table: 2222
epoch: 1000
next table: 2027
cur table: 2035
epoch: 1000
next table: 2192
cur table: 2191
epoch: 1000
next table: 2216
cur table: 2192
epoch: 1000
next table: 2022
cur table: 2027
epoch: 1000
next table: 2218
cur table: 2216
epoch: 1000
next table: 2000
cur table: 2022
epoch: 1000
next table: 2185
cur table: 2218
epoch: 1000
next table: 2059
cur table: 2000
epoch: 1000
next table: 2212
cur table: 2185
epoch: 1000
next table: 2060
cur table: 2059
epoch: 1000
next table: 2271
cur table: 2212
epoch: 1000
next table: 2056
cur table: 2060
epoch: 1000
next table: 2170
cur table: 2271
epoch: 1000
next table: 2046
cur table: 2056
epoch: 1000
next table: 2157
cur table: 2170
epoch: 1000
next table: 2055
cur table: 2046
epoch: 1000
next table: 2220
cur table: 2157
epoch: 1000
next table: 2217
cur table: 2220
epoch: 1000
next table: 2026
cur table: 2055
epoch: 1000
next table: 2201
cur table: 2217
epoch: 1000
next table: 2048
cur table: 2026
epoch: 1000
next table: 2205
cur table: 2201
epoch: 1000
next table: 2039
cur table: 2048
epoch: 1000
next table: 2235
cur table: 2205
epoch: 1000
next table: 2024
cur table: 2039
epoch: 1000
next table: 2239
cur table: 2235
epoch: 1000
next table: 2022
cur table: 2024
epoch: 1000
next table: 2235
cur table: 2239
epoch: 1000
next table: 2035
cur table: 2022
epoch: 1000
next table: 2255
cur table: 2235
epoch: 1000
next table: 2035
cur table: 2035
epoch: 1000
next table: 2228
cur table: 2255
epoch: 1000
next table: 2059
cur table: 2035
epoch: 1000
next table: 2202
cur table: 2228
epoch: 1000
next table: 2239
cur table: 2202
epoch: 1000
next table: 2048
cur table: 2059
epoch: 1000
next table: 2161
cur table: 2239
epoch: 1000
next table: 2105
cur table: 2048
epoch: 1000
next table: 2236
cur table: 2161
epoch: 1000
next table: 2080
cur table: 2105
epoch: 1000
next table: 2269
cur table: 2236
epoch: 1000
next table: 1994
cur table: 2080
epoch: 1000
next table: 2260
cur table: 2269
epoch: 1000
next table: 1998
cur table: 1994
epoch: 1000
next table: 2241
cur table: 2260
epoch: 1000
next table: 1984
cur table: 1998
epoch: 1000
next table: 2213
cur table: 2241
epoch: 1000
next table: 2028
cur table: 1984
epoch: 1000
next table: 2209
cur table: 2213
epoch: 1000
next table: 2188
cur table: 2209
epoch: 1000
next table: 2040
cur table: 2028
epoch: 1000
next table: 2215
cur table: 2188
epoch: 1000
next table: 2030
cur table: 2040
epoch: 1000
next table: 2235
cur table: 2215
epoch: 1000
next table: 2009
cur table: 2030
epoch: 1000
next table: 2245
cur table: 2235
epoch: 1000
next table: 2028
cur table: 2009
epoch: 1000
next table: 2249
cur table: 2245
epoch: 1000
next table: 2056
cur table: 2028
epoch: 1000
next table: 2239
cur table: 2249
epoch: 1000
next table: 2030
cur table: 2056
epoch: 1000
next table: 2266
cur table: 2239
epoch: 1000
next table: 2040
cur table: 2030
epoch: 1000
next table: 2247
cur table: 2266
epoch: 1000
next table: 2272
cur table: 2247
epoch: 1000
next table: 2041
cur table: 2040
epoch: 1000
next table: 2198
cur table: 2272
epoch: 1000
next table: 2073
cur table: 2041
epoch: 1000
next table: 2197
cur table: 2198
epoch: 1000
next table: 2058
cur table: 2073
epoch: 1000
next table: 2211
cur table: 2197
epoch: 1000
next table: 2034
cur table: 2058
epoch: 1000
next table: 2148
cur table: 2211
epoch: 1000
next table: 2052
cur table: 2034
epoch: 1000
next table: 2213
cur table: 2148
epoch: 1000
next table: 2080
cur table: 2052
epoch: 1000
next table: 2217
cur table: 2213
epoch: 1000
next table: 2213
cur table: 2217
epoch: 1000
next table: 2085
cur table: 2080
epoch: 1000
next table: 2219
cur table: 2213
epoch: 1000
next table: 2027
cur table: 2085
epoch: 1000
next table: 2192
cur table: 2219
epoch: 1000
next table: 2047
cur table: 2027
epoch: 1000
next table: 2213
cur table: 2192
epoch: 1000
next table: 2037
cur table: 2047
epoch: 1000
next table: 2182
cur table: 2213
epoch: 1000
next table: 2057
cur table: 2037
epoch: 1000
next table: 2172
cur table: 2182
epoch: 1000
next table: 2065
cur table: 2057
epoch: 1000
next table: 2195
cur table: 2172
epoch: 1000
next table: 2045
cur table: 2065
epoch: 1000
next table: 2228
cur table: 2195
epoch: 1000
next table: 2195
cur table: 2228
epoch: 1000
next table: 2038
cur table: 2045
epoch: 1000
next table: 2190
cur table: 2195
epoch: 1000
next table: 2083
cur table: 2038
epoch: 1000
next table: 2232
cur table: 2190
epoch: 1000
next table: 2047
cur table: 2083
epoch: 1000
next table: 2207
cur table: 2232
epoch: 1000
next table: 2082
cur table: 2047
epoch: 1000
next table: 2231
cur table: 2207
epoch: 1000
next table: 2073
cur table: 2082
epoch: 1000
next table: 2255
cur table: 2231
epoch: 1000
next table: 2074
cur table: 2073
epoch: 1000
next table: 2292
cur table: 2255
epoch: 1000
next table: 2215
cur table: 2292
epoch: 1000
next table: 2087
cur table: 2074
epoch: 1000
next table: 2239
cur table: 2215
epoch: 1000
next table: 2056
cur table: 2087
epoch: 1000
next table: 2203
cur table: 2239
epoch: 1000
next table: 2033
cur table: 2056
epoch: 1000
next table: 2207
cur table: 2203
epoch: 1000
next table: 2111
cur table: 2033
epoch: 1000
next table: 2187
cur table: 2207
epoch: 1000
next table: 2056
cur table: 2111
epoch: 1000
next table: 2155
cur table: 2187
epoch: 1000
next table: 2014
cur table: 2056
epoch: 1000
next table: 2190
cur table: 2155
epoch: 1000
next table: 2234
cur table: 2190
epoch: 1000
next table: 2024
cur table: 2014
epoch: 1000
next table: 2185
cur table: 2234
epoch: 1000
next table: 2030
cur table: 2024
epoch: 1000
next table: 2188
cur table: 2185
epoch: 1000
next table: 2004
cur table: 2030
epoch: 1000
next table: 2224
cur table: 2188
epoch: 1000
next table: 2009
cur table: 2004
epoch: 1000
next table: 2254
cur table: 2224
epoch: 1000
next table: 2062
cur table: 2009
epoch: 1000
next table: 2163
cur table: 2254
epoch: 1000
next table: 2106
cur table: 2062
epoch: 1000
next table: 2224
cur table: 2163
epoch: 1000
next table: 2050
cur table: 2106
epoch: 1000
next table: 2173
cur table: 2224
epoch: 1000
next table: 2025
cur table: 2050
epoch: 1000
next table: 2223
cur table: 2173
epoch: 1000
next table: 2196
cur table: 2223
epoch: 1000
next table: 1990
cur table: 2025
epoch: 1000
next table: 2253
cur table: 2196
epoch: 1000
next table: 1982
cur table: 1990
epoch: 1000
next table: 2231
cur table: 2253
epoch: 1000
next table: 1959
cur table: 1982
epoch: 1000
next table: 2268
cur table: 2231
epoch: 1000
next table: 1961
cur table: 1959
epoch: 1000
next table: 2224
cur table: 2268
epoch: 1000
next table: 1947
cur table: 1961
epoch: 1000
next table: 2236
cur table: 2224
epoch: 1000
next table: 1949
cur table: 1947
epoch: 1000
next table: 2271
cur table: 2236
epoch: 1000
next table: 1997
cur table: 1949
epoch: 1000
next table: 2235
cur table: 2271
epoch: 1000
next table: 1961
cur table: 1997
epoch: 1000
next table: 2177
cur table: 2235
epoch: 1000
next table: 2048
cur table: 1961
epoch: 1000
next table: 2271
cur table: 2177
epoch: 1000
next table: 1977
cur table: 2048
epoch: 1000
next table: 2245
cur table: 2271
epoch: 1000
next table: 2043
cur table: 1977
epoch: 1000
next table: 2189
cur table: 2245
epoch: 1000
next table: 2156
cur table: 2189
epoch: 1000
next table: 2077
cur table: 2043
epoch: 1000
next table: 2146
cur table: 2156
epoch: 1000
next table: 2056
cur table: 2077
epoch: 1000
next table: 2232
cur table: 2146
epoch: 1000
next table: 2055
cur table: 2056
epoch: 1000
next table: 2216
cur table: 2232
epoch: 1000
next table: 2028
cur table: 2055
epoch: 1000
next table: 2211
cur table: 2216
epoch: 1000
next table: 2029
cur table: 2028
epoch: 1000
next table: 2267
cur table: 2211
epoch: 1000
next table: 2006
cur table: 2029
epoch: 1000
next table: 2253
cur table: 2267
epoch: 1000
next table: 2012
cur table: 2006
epoch: 1000
next table: 2225
cur table: 2253
epoch: 1000
next table: 1995
cur table: 2012
epoch: 1000
next table: 2216
cur table: 2225
epoch: 1000
next table: 2191
cur table: 2216
epoch: 1000
next table: 2033
cur table: 1995
epoch: 1000
next table: 2177
cur table: 2191
epoch: 1000
next table: 2037
cur table: 2033
epoch: 1000
next table: 2161
cur table: 2177
epoch: 1000
next table: 2050
cur table: 2037
epoch: 1000
next table: 2203
cur table: 2161
epoch: 1000
next table: 2055
cur table: 2050
epoch: 1000
next table: 2189
cur table: 2203
epoch: 1000
next table: 2035
cur table: 2055
epoch: 1000
next table: 2203
cur table: 2189
epoch: 1000
next table: 2022
cur table: 2035
epoch: 1000
next table: 2254
cur table: 2203
epoch: 1000
next table: 2044
cur table: 2022
epoch: 1000
next table: 2167
cur table: 2254
epoch: 1000
next table: 2261
cur table: 2167
epoch: 1000
next table: 2015
cur table: 2044
epoch: 1000
next table: 2208
cur table: 2261
epoch: 1000
next table: 2057
cur table: 2015
epoch: 1000
next table: 2227
cur table: 2208
epoch: 1000
next table: 2061
cur table: 2057
epoch: 1000
next table: 2241
cur table: 2227
epoch: 1000
next table: 2036
cur table: 2061
epoch: 1000
next table: 2220
cur table: 2241
epoch: 1000
next table: 2038
cur table: 2036
epoch: 1000
next table: 2201
cur table: 2220
epoch: 1000
next table: 2024
cur table: 2038
epoch: 1000
next table: 2244
cur table: 2201
epoch: 1000
next table: 2067
cur table: 2024
epoch: 1000
next table: 2205
cur table: 2244
epoch: 1000
next table: 2212
cur table: 2205
epoch: 1000
next table: 2042
cur table: 2067
epoch: 1000
next table: 2236
cur table: 2212
epoch: 1000
next table: 2049
cur table: 2042
epoch: 1000
next table: 2172
cur table: 2236
epoch: 1000
next table: 2066
cur table: 2049
epoch: 1000
next table: 2243
cur table: 2172
epoch: 1000
next table: 1997
cur table: 2066
epoch: 1000
next table: 2223
cur table: 2243
epoch: 1000
next table: 1986
cur table: 1997
epoch: 1000
next table: 2241
cur table: 2223
epoch: 1000
next table: 2008
cur table: 1986
epoch: 1000
next table: 2221
cur table: 2241
epoch: 1000
next table: 2014
cur table: 2008
epoch: 1000
next table: 2221
cur table: 2221
epoch: 1000
next table: 2010
cur table: 2014
epoch: 1000
next table: 2246
cur table: 2221
epoch: 1000
next table: 1998
cur table: 2010
epoch: 1000
next table: 2235
cur table: 2246
epoch: 1000
next table: 2242
cur table: 2235
epoch: 1000
next table: 2039
cur table: 1998
epoch: 1000
next table: 2249
cur table: 2242
epoch: 1000
next table: 2034
cur table: 2039
epoch: 1000
next table: 2244
cur table: 2249
epoch: 1000
next table: 2047
cur table: 2034
epoch: 1000
next table: 2222
cur table: 2244
epoch: 1000
next table: 2060
cur table: 2047
epoch: 1000
next table: 2210
cur table: 2222
epoch: 1000
next table: 2073
cur table: 2060
epoch: 1000
next table: 2193
cur table: 2210
epoch: 1000
next table: 2026
cur table: 2073
epoch: 1000
next table: 2261
cur table: 2193
epoch: 1000
next table: 2006
cur table: 2026
epoch: 1000
next table: 2279
cur table: 2261
epoch: 1000
next table: 2268
cur table: 2279
epoch: 1000
next table: 2015
cur table: 2006
epoch: 1000
next table: 2166
cur table: 2268
epoch: 1000
next table: 2061
cur table: 2015
epoch: 1000
next table: 2190
cur table: 2166
epoch: 1000
next table: 1965
cur table: 2061
epoch: 1000
next table: 2203
cur table: 2190
epoch: 1000
next table: 2026
cur table: 1965
epoch: 1000
next table: 2228
cur table: 2203
epoch: 1000
next table: 2056
cur table: 2026
epoch: 1000
next table: 2224
cur table: 2228
epoch: 1000
next table: 2041
cur table: 2056
epoch: 1000
next table: 2250
cur table: 2224
epoch: 1000
next table: 2034
cur table: 2041
epoch: 1000
next table: 2236
cur table: 2250
epoch: 1000
next table: 2245
cur table: 2236
epoch: 1000
next table: 2048
cur table: 2034
epoch: 1000
next table: 2198
cur table: 2245
epoch: 1000
next table: 2036
cur table: 2048
epoch: 1000
next table: 2185
cur table: 2198
epoch: 1000
next table: 2009
cur table: 2036
epoch: 1000
next table: 2230
cur table: 2185
epoch: 1000
next table: 2022
cur table: 2009
epoch: 1000
next table: 2255
cur table: 2230
epoch: 1000
next table: 2011
cur table: 2022
epoch: 1000
next table: 2169
cur table: 2255
epoch: 1000
next table: 2047
cur table: 2011
epoch: 1000
next table: 2173
cur table: 2169
epoch: 1000
next table: 2062
cur table: 2047
epoch: 1000
next table: 2226
cur table: 2173
epoch: 1000
next table: 2038
cur table: 2062
epoch: 1000
next table: 2213
cur table: 2226
epoch: 1000
next table: 2249
cur table: 2213
epoch: 1000
next table: 2062
cur table: 2038
epoch: 1000
next table: 2232
cur table: 2249
epoch: 1000
next table: 2065
cur table: 2062
epoch: 1000
next table: 2184
cur table: 2232
epoch: 1000
next table: 2059
cur table: 2065
epoch: 1000
next table: 2194
cur table: 2184
epoch: 1000
next table: 2072
cur table: 2059
epoch: 1000
next table: 2215
cur table: 2194
epoch: 1000
next table: 2066
cur table: 2072
epoch: 1000
next table: 2189
cur table: 2215
epoch: 1000
next table: 2022
cur table: 2066
epoch: 1000
next table: 2264
cur table: 2189
epoch: 1000
next table: 2269
cur table: 2264
epoch: 1000
next table: 2034
cur table: 2022
epoch: 1000
next table: 2229
cur table: 2269
epoch: 1000
next table: 2021
cur table: 2034
epoch: 1000
next table: 2295
cur table: 2229
epoch: 1000
next table: 2016
cur table: 2021
epoch: 1000
next table: 2205
cur table: 2295
epoch: 1000
next table: 1999
cur table: 2016
epoch: 1000
next table: 2217
cur table: 2205
epoch: 1000
next table: 1989
cur table: 1999
epoch: 1000
next table: 2237
cur table: 2217
epoch: 1000
next table: 2029
cur table: 1989
epoch: 1000
next table: 2222
cur table: 2237
epoch: 1000
next table: 2012
cur table: 2029
epoch: 1000
next table: 2242
cur table: 2222
epoch: 1000
next table: 2004
cur table: 2012
epoch: 1000
next table: 2186
cur table: 2242
epoch: 1000
next table: 2211
cur table: 2186
epoch: 1000
next table: 2002
cur table: 2004
epoch: 1000
next table: 2258
cur table: 2211
epoch: 1000
next table: 2019
cur table: 2002
epoch: 1000
next table: 2231
cur table: 2258
epoch: 1000
next table: 2024
cur table: 2019
epoch: 1000
next table: 2235
cur table: 2231
epoch: 1000
next table: 2014
cur table: 2024
epoch: 1000
next table: 2209
cur table: 2235
epoch: 1000
next table: 2046
cur table: 2014
epoch: 1000
next table: 2202
cur table: 2209
epoch: 1000
next table: 2084
cur table: 2046
epoch: 1000
next table: 2190
cur table: 2202
epoch: 1000
next table: 2084
cur table: 2084
epoch: 1000
next table: 2209
cur table: 2190
epoch: 1000
next table: 2185
cur table: 2209
epoch: 1000
next table: 1995
cur table: 2084
epoch: 1000
next table: 2224
cur table: 2185
epoch: 1000
next table: 2014
cur table: 1995
epoch: 1000
next table: 2239
cur table: 2224
epoch: 1000
next table: 2012
cur table: 2014
epoch: 1000
next table: 2226
cur table: 2239
epoch: 1000
next table: 2066
cur table: 2012
epoch: 1000
next table: 2214
cur table: 2226
epoch: 1000
next table: 2058
cur table: 2066
epoch: 1000
next table: 2220
cur table: 2214
epoch: 1000
next table: 2056
cur table: 2058
epoch: 1000
next table: 2240
cur table: 2220
epoch: 1000
next table: 1999
cur table: 2056
epoch: 1000
next table: 2272
cur table: 2240
epoch: 1000
next table: 2023
cur table: 1999
epoch: 1000
next table: 2243
cur table: 2272
epoch: 1000
next table: 2237
cur table: 2243
epoch: 1000
next table: 2001
cur table: 2023
epoch: 1000
next table: 2215
cur table: 2237
epoch: 1000
next table: 1997
cur table: 2001
epoch: 1000
next table: 2196
cur table: 2215
epoch: 1000
next table: 1986
cur table: 1997
epoch: 1000
next table: 2198
cur table: 2196
epoch: 1000
next table: 2032
cur table: 1986
epoch: 1000
next table: 2215
cur table: 2198
epoch: 1000
next table: 2010
cur table: 2032
epoch: 1000
next table: 2189
cur table: 2215
epoch: 1000
next table: 2002
cur table: 2010
epoch: 1000
next table: 2255
cur table: 2189
epoch: 1000
next table: 2004
cur table: 2002
epoch: 1000
next table: 2249
cur table: 2255
epoch: 1000
next table: 1990
cur table: 2004
epoch: 1000
next table: 2239
cur table: 2249
epoch: 1000
next table: 1983
cur table: 1990
epoch: 1000
next table: 2202
cur table: 2239
epoch: 1000
next table: 1993
cur table: 1983
epoch: 1000
next table: 2180
cur table: 2202
epoch: 1000
next table: 2003
cur table: 1993
epoch: 1000
next table: 2258
cur table: 2180
epoch: 1000
next table: 2222
cur table: 2258
epoch: 1000
next table: 1995
cur table: 2003
epoch: 1000
next table: 2242
cur table: 2222
epoch: 1000
next table: 2045
cur table: 1995
epoch: 1000
next table: 2172
cur table: 2242
epoch: 1000
next table: 2079
cur table: 2045
epoch: 1000
next table: 2185
cur table: 2172
epoch: 1000
next table: 2045
cur table: 2079
epoch: 1000
next table: 2186
cur table: 2185
epoch: 1000
next table: 2031
cur table: 2045
epoch: 1000
next table: 2229
cur table: 2186
epoch: 1000
next table: 2020
cur table: 2031
epoch: 1000
next table: 2210
cur table: 2229
epoch: 1000
next table: 2053
cur table: 2020
epoch: 1000
next table: 2236
cur table: 2210
epoch: 1000
next table: 2032
cur table: 2053
epoch: 1000
next table: 2231
cur table: 2236
epoch: 1000
next table: 2221
cur table: 2231
epoch: 1000
next table: 2028
cur table: 2032
epoch: 1000
next table: 2272
cur table: 2221
epoch: 1000
next table: 2010
cur table: 2028
epoch: 1000
next table: 2245
cur table: 2272
epoch: 1000
next table: 1999
cur table: 2010
epoch: 1000
next table: 2259
cur table: 2245
epoch: 1000
next table: 2060
cur table: 1999
epoch: 1000
next table: 2191
cur table: 2259
epoch: 1000
next table: 2067
cur table: 2060
epoch: 1000
next table: 2230
cur table: 2191
epoch: 1000
next table: 2023
cur table: 2067
epoch: 1000
next table: 2245
cur table: 2230
epoch: 1000
next table: 2013
cur table: 2023
epoch: 1000
next table: 2193
cur table: 2245
epoch: 1000
next table: 2222
cur table: 2193
epoch: 1000
next table: 2049
cur table: 2013
epoch: 1000
next table: 2202
cur table: 2222
epoch: 1000
next table: 1994
cur table: 2049
epoch: 1000
next table: 2222
cur table: 2202
epoch: 1000
next table: 2012
cur table: 1994
epoch: 1000
next table: 2210
cur table: 2222
epoch: 1000
next table: 2028
cur table: 2012
epoch: 1000
next table: 2155
cur table: 2210
epoch: 1000
next table: 2020
cur table: 2028
epoch: 1000
next table: 2199
cur table: 2155
epoch: 1000
next table: 2033
cur table: 2020
epoch: 1000
next table: 2212
cur table: 2199
epoch: 1000
next table: 2054
cur table: 2033
epoch: 1000
next table: 2182
cur table: 2212
epoch: 1000
next table: 2056
cur table: 2054
epoch: 1000
next table: 2176
cur table: 2182
epoch: 1000
next table: 2188
cur table: 2176
epoch: 1000
next table: 2058
cur table: 2056
epoch: 1000
next table: 2216
cur table: 2188
epoch: 1000
next table: 2056
cur table: 2058
epoch: 1000
next table: 2214
cur table: 2216
epoch: 1000
next table: 2045
cur table: 2056
epoch: 1000
next table: 2213
cur table: 2214
epoch: 1000
next table: 2010
cur table: 2045
epoch: 1000
next table: 2194
cur table: 2213
epoch: 1000
next table: 2078
cur table: 2010
epoch: 1000
next table: 2168
cur table: 2194
epoch: 1000
next table: 2021
cur table: 2078
epoch: 1000
next table: 2220
cur table: 2168
epoch: 1000
next table: 2052
cur table: 2021
epoch: 1000
next table: 2216
cur table: 2220
epoch: 1000
next table: 2050
cur table: 2052
epoch: 1000
next table: 2212
cur table: 2216
epoch: 1000
next table: 2217
cur table: 2212
epoch: 1000
next table: 2084
cur table: 2050
epoch: 1000
next table: 2174
cur table: 2217
epoch: 1000
next table: 2024
cur table: 2084
epoch: 1000
next table: 2214
cur table: 2174
epoch: 1000
next table: 2027
cur table: 2024
epoch: 1000
next table: 2223
cur table: 2214
epoch: 1000
next table: 2037
cur table: 2027
epoch: 1000
next table: 2242
cur table: 2223
epoch: 1000
next table: 1997
cur table: 2037
epoch: 1000
next table: 2222
cur table: 2242
epoch: 1000
next table: 2040
cur table: 1997
epoch: 1000
next table: 2264
cur table: 2222
epoch: 1000
next table: 2027
cur table: 2040
epoch: 1000
next table: 2247
cur table: 2264
epoch: 1000
next table: 2216
cur table: 2247
epoch: 1000
next table: 2078
cur table: 2027
epoch: 1000
next table: 2240
cur table: 2216
epoch: 1000
next table: 2001
cur table: 2078
epoch: 1000
next table: 2260
cur table: 2240
epoch: 1000
next table: 1987
cur table: 2001
epoch: 1000
next table: 2246
cur table: 2260
epoch: 1000
next table: 2012
cur table: 1987
epoch: 1000
next table: 2211
cur table: 2246
epoch: 1000
next table: 2042
cur table: 2012
epoch: 1000
next table: 2191
cur table: 2211
epoch: 1000
next table: 2027
cur table: 2042
epoch: 1000
next table: 2204
cur table: 2191
epoch: 1000
next table: 1999
cur table: 2027
epoch: 1000
next table: 2257
cur table: 2204
epoch: 1000
next table: 2033
cur table: 1999
epoch: 1000
next table: 2197
cur table: 2257
epoch: 1000
next table: 2020
cur table: 2033
epoch: 1000
next table: 2183
cur table: 2197
epoch: 1000
next table: 2187
cur table: 2183
epoch: 1000
next table: 2049
cur table: 2020
epoch: 1000
next table: 2222
cur table: 2187
epoch: 1000
next table: 2089
cur table: 2049
epoch: 1000
next table: 2213
cur table: 2222
epoch: 1000
next table: 2040
cur table: 2089
epoch: 1000
next table: 2212
cur table: 2213
epoch: 1000
next table: 2023
cur table: 2040
epoch: 1000
next table: 2216
cur table: 2212
epoch: 1000
next table: 2034
cur table: 2023
epoch: 1000
next table: 2174
cur table: 2216
epoch: 1000
next table: 2002
cur table: 2034
epoch: 1000
next table: 2262
cur table: 2174
epoch: 1000
next table: 2024
cur table: 2002
epoch: 1000
next table: 2191
cur table: 2262
epoch: 1000
next table: 1952
cur table: 2024
epoch: 1000
next table: 2239
cur table: 2191
epoch: 1000
next table: 2199
cur table: 2239
epoch: 1000
next table: 1974
cur table: 1952
epoch: 1000
next table: 2219
cur table: 2199
epoch: 1000
next table: 1963
cur table: 1974
epoch: 1000
next table: 2212
cur table: 2219
epoch: 1000
next table: 1997
cur table: 1963
epoch: 1000
next table: 2229
cur table: 2212
epoch: 1000
next table: 1991
cur table: 1997
epoch: 1000
next table: 2232
cur table: 2229
epoch: 1000
next table: 2002
cur table: 1991
epoch: 1000
next table: 2238
cur table: 2232
epoch: 1000
next table: 2066
cur table: 2002
epoch: 1000
next table: 2225
cur table: 2238
epoch: 1000
next table: 2077
cur table: 2066
epoch: 1000
next table: 2210
cur table: 2225
epoch: 1000
next table: 2035
cur table: 2077
epoch: 1000
next table: 2245
cur table: 2210
epoch: 1000
next table: 2028
cur table: 2035
epoch: 1000
next table: 2226
cur table: 2245
epoch: 1000
next table: 2215
cur table: 2226
epoch: 1000
next table: 2010
cur table: 2028
epoch: 1000
next table: 2231
cur table: 2215
epoch: 1000
next table: 2086
cur table: 2010
epoch: 1000
next table: 2211
cur table: 2231
epoch: 1000
next table: 2103
cur table: 2086
epoch: 1000
next table: 2213
cur table: 2211
epoch: 1000
next table: 2020
cur table: 2103
epoch: 1000
next table: 2234
cur table: 2213
epoch: 1000
next table: 2086
cur table: 2020
epoch: 1000
next table: 2281
cur table: 2234
epoch: 1000
next table: 2032
cur table: 2086
epoch: 1000
next table: 2213
cur table: 2281
epoch: 1000
next table: 2234
cur table: 2213
epoch: 1000
next table: 2038
cur table: 2032
Caught signal: 2
